MODEL 1
REMARK VINA RESULT:      -6.6      0.000      0.000
REMARK  Name = ZINC000299749536 PubChem-125151685
REMARK  6 active torsions:
REMARK  status: ('A' for Active; 'I' for Inactive)
REMARK    1  A    between atoms: C_2  and  O_22
REMARK    2  A    between atoms: C_5  and  C_6
REMARK    3  A    between atoms: C_7  and  C_8
REMARK    4  A    between atoms: C_9  and  C_10
REMARK    5  A    between atoms: C_9  and  N_27
REMARK    6  A    between atoms: C_13  and  C_14
REMARK                            x       y       z     vdW  Elec       q    Type
REMARK                         _______ _______ _______ _____ _____    ______ ____
ROOT
ATOM      1  C   UNL     1     -44.035 -16.511 -25.707  0.00  0.00    +0.000 C 
ATOM      2  C   UNL     1     -44.678 -17.854 -26.100  0.00  0.00    +0.000 C 
ATOM      3  C   UNL     1     -43.589 -18.723 -26.744  0.00  0.00    +0.000 C 
ATOM      4  C   UNL     1     -42.407 -17.840 -26.742  0.00  0.00    +0.000 C 
ATOM      5  C   UNL     1     -41.636 -15.609 -25.818  0.00  0.00    +0.000 C 
ATOM      6  O   UNL     1     -41.278 -18.181 -27.182  0.00  0.00    +0.000 OA
ATOM      7  N   UNL     1     -42.664 -16.572 -26.178  0.00  0.00    +0.000 N 
ENDROOT
BRANCH   1  11
ATOM      8  C   UNL     1     -46.183 -13.210 -27.449  0.00  0.00    +0.000 A 
ATOM      9  C   UNL     1     -45.394 -14.039 -28.264  0.00  0.00    +0.000 A 
ATOM     10  C   UNL     1     -44.692 -15.110 -27.706  0.00  0.00    +0.000 A 
ATOM     11  C   UNL     1     -44.771 -15.364 -26.330  0.00  0.00    +0.000 A 
ATOM     12  C   UNL     1     -45.559 -14.540 -25.519  0.00  0.00    +0.000 A 
ATOM     13  C   UNL     1     -46.260 -13.468 -26.077  0.00  0.00    +0.000 A 
BRANCH   8  15
ATOM     14  C   UNL     1     -46.454 -11.395 -29.108  0.00  0.00    +0.000 C 
ATOM     15  O   UNL     1     -46.898 -12.130 -27.976  0.00  0.00    +0.000 OA
ENDBRANCH   8  15
ENDBRANCH   1  11
BRANCH   2  16
ATOM     16  C   UNL     1     -45.254 -18.531 -24.902  0.00  0.00    +0.000 C 
ATOM     17  O   UNL     1     -46.254 -19.285 -25.040  0.00  0.00    +0.000 OA
ATOM     18  N   UNL     1     -44.676 -18.322 -23.611  0.00  0.00    +0.000 NA
BRANCH  18  19
ATOM     19  C   UNL     1     -45.208 -18.957 -22.416  0.00  0.00    +0.000 C 
BRANCH  19  20
ATOM     20  C   UNL     1     -45.580 -17.916 -21.421  0.00  0.00    +0.000 A 
ATOM     21  C   UNL     1     -45.455 -16.561 -21.744  0.00  0.00    +0.000 A 
ATOM     22  C   UNL     1     -45.828 -15.584 -20.818  0.00  0.00    +0.000 A 
ATOM     23  C   UNL     1     -46.336 -15.953 -19.564  0.00  0.00    +0.000 A 
ATOM     24  C   UNL     1     -46.467 -17.312 -19.249  0.00  0.00    +0.000 A 
ATOM     25  C   UNL     1     -46.094 -18.290 -20.175  0.00  0.00    +0.000 A 
BRANCH  23  26
ATOM     26  C   UNL     1     -46.731 -14.927 -18.586  0.00  0.00    +0.000 C 
ATOM     27  O   UNL     1     -47.384 -15.243 -17.556  0.00  0.00    +0.000 OA
ATOM     28  O   UNL     1     -46.384 -13.595 -18.788  0.00  0.00    +0.000 OA
ENDBRANCH  23  26
ENDBRANCH  19  20
ENDBRANCH  18  19
ENDBRANCH   2  16
TORSDOF 6
ENDMDL
MODEL 2
REMARK VINA RESULT:      -6.5     10.548     14.020
REMARK  Name = ZINC000299749536 PubChem-125151685
REMARK  6 active torsions:
REMARK  status: ('A' for Active; 'I' for Inactive)
REMARK    1  A    between atoms: C_2  and  O_22
REMARK    2  A    between atoms: C_5  and  C_6
REMARK    3  A    between atoms: C_7  and  C_8
REMARK    4  A    between atoms: C_9  and  C_10
REMARK    5  A    between atoms: C_9  and  N_27
REMARK    6  A    between atoms: C_13  and  C_14
REMARK                            x       y       z     vdW  Elec       q    Type
REMARK                         _______ _______ _______ _____ _____    ______ ____
ROOT
ATOM      1  C   UNL     1     -44.901  -4.224 -32.407  0.00  0.00    +0.000 C 
ATOM      2  C   UNL     1     -46.252  -3.724 -31.862  0.00  0.00    +0.000 C 
ATOM      3  C   UNL     1     -47.345  -4.171 -32.842  0.00  0.00    +0.000 C 
ATOM      4  C   UNL     1     -46.584  -4.846 -33.911  0.00  0.00    +0.000 C 
ATOM      5  C   UNL     1     -44.239  -5.659 -34.428  0.00  0.00    +0.000 C 
ATOM      6  O   UNL     1     -47.117  -5.377 -34.921  0.00  0.00    +0.000 OA
ATOM      7  N   UNL     1     -45.192  -4.854 -33.680  0.00  0.00    +0.000 N 
ENDROOT
BRANCH   1  11
ATOM      8  C   UNL     1     -42.097  -0.984 -32.850  0.00  0.00    +0.000 A 
ATOM      9  C   UNL     1     -43.454  -0.781 -33.153  0.00  0.00    +0.000 A 
ATOM     10  C   UNL     1     -44.369  -1.828 -33.014  0.00  0.00    +0.000 A 
ATOM     11  C   UNL     1     -43.938  -3.086 -32.572  0.00  0.00    +0.000 A 
ATOM     12  C   UNL     1     -42.589  -3.287 -32.267  0.00  0.00    +0.000 A 
ATOM     13  C   UNL     1     -41.673  -2.241 -32.407  0.00  0.00    +0.000 A 
BRANCH   8  15
ATOM     14  C   UNL     1     -40.221   0.357 -31.955  0.00  0.00    +0.000 C 
ATOM     15  O   UNL     1     -41.156   0.042 -32.977  0.00  0.00    +0.000 OA
ENDBRANCH   8  15
ENDBRANCH   1  11
BRANCH   2  16
ATOM     16  C   UNL     1     -46.506  -4.278 -30.500  0.00  0.00    +0.000 C 
ATOM     17  O   UNL     1     -47.030  -3.542 -29.622  0.00  0.00    +0.000 OA
ATOM     18  N   UNL     1     -46.152  -5.629 -30.196  0.00  0.00    +0.000 NA
BRANCH  18  19
ATOM     19  C   UNL     1     -46.376  -6.208 -28.881  0.00  0.00    +0.000 C 
BRANCH  19  20
ATOM     20  C   UNL     1     -45.074  -6.387 -28.185  0.00  0.00    +0.000 A 
ATOM     21  C   UNL     1     -45.042  -6.858 -26.869  0.00  0.00    +0.000 A 
ATOM     22  C   UNL     1     -43.818  -7.049 -26.223  0.00  0.00    +0.000 A 
ATOM     23  C   UNL     1     -42.615  -6.777 -26.891  0.00  0.00    +0.000 A 
ATOM     24  C   UNL     1     -42.653  -6.312 -28.213  0.00  0.00    +0.000 A 
ATOM     25  C   UNL     1     -43.878  -6.121 -28.859  0.00  0.00    +0.000 A 
BRANCH  23  26
ATOM     26  C   UNL     1     -41.323  -6.976 -26.215  0.00  0.00    +0.000 C 
ATOM     27  O   UNL     1     -40.847  -6.080 -25.469  0.00  0.00    +0.000 OA
ATOM     28  O   UNL     1     -40.614  -8.159 -26.394  0.00  0.00    +0.000 OA
ENDBRANCH  23  26
ENDBRANCH  19  20
ENDBRANCH  18  19
ENDBRANCH   2  16
TORSDOF 6
ENDMDL
MODEL 3
REMARK VINA RESULT:      -6.4      1.796      2.418
REMARK  Name = ZINC000299749536 PubChem-125151685
REMARK  6 active torsions:
REMARK  status: ('A' for Active; 'I' for Inactive)
REMARK    1  A    between atoms: C_2  and  O_22
REMARK    2  A    between atoms: C_5  and  C_6
REMARK    3  A    between atoms: C_7  and  C_8
REMARK    4  A    between atoms: C_9  and  C_10
REMARK    5  A    between atoms: C_9  and  N_27
REMARK    6  A    between atoms: C_13  and  C_14
REMARK                            x       y       z     vdW  Elec       q    Type
REMARK                         _______ _______ _______ _____ _____    ______ ____
ROOT
ATOM      1  C   UNL     1     -44.262 -17.186 -24.605  0.00  0.00    +0.000 C 
ATOM      2  C   UNL     1     -45.356 -18.123 -24.061  0.00  0.00    +0.000 C 
ATOM      3  C   UNL     1     -45.441 -19.335 -24.998  0.00  0.00    +0.000 C 
ATOM      4  C   UNL     1     -44.451 -19.022 -26.046  0.00  0.00    +0.000 C 
ATOM      5  C   UNL     1     -42.613 -17.354 -26.563  0.00  0.00    +0.000 C 
ATOM      6  O   UNL     1     -44.197 -19.780 -27.019  0.00  0.00    +0.000 OA
ATOM      7  N   UNL     1     -43.798 -17.788 -25.840  0.00  0.00    +0.000 N 
ENDROOT
BRANCH   1  11
ATOM      8  C   UNL     1     -45.820 -13.220 -25.234  0.00  0.00    +0.000 A 
ATOM      9  C   UNL     1     -46.024 -14.215 -26.206  0.00  0.00    +0.000 A 
ATOM     10  C   UNL     1     -45.520 -15.503 -26.011  0.00  0.00    +0.000 A 
ATOM     11  C   UNL     1     -44.806 -15.810 -24.843  0.00  0.00    +0.000 A 
ATOM     12  C   UNL     1     -44.607 -14.822 -23.875  0.00  0.00    +0.000 A 
ATOM     13  C   UNL     1     -45.110 -13.533 -24.071  0.00  0.00    +0.000 A 
BRANCH   8  15
ATOM     14  C   UNL     1     -46.364 -11.277 -26.664  0.00  0.00    +0.000 C 
ATOM     15  O   UNL     1     -46.312 -11.923 -25.400  0.00  0.00    +0.000 OA
ENDBRANCH   8  15
ENDBRANCH   1  11
BRANCH   2  16
ATOM     16  C   UNL     1     -45.035 -18.554 -22.669  0.00  0.00    +0.000 C 
ATOM     17  O   UNL     1     -44.121 -19.400 -22.480  0.00  0.00    +0.000 OA
ATOM     18  N   UNL     1     -45.762 -18.013 -21.563  0.00  0.00    +0.000 NA
BRANCH  18  19
ATOM     19  C   UNL     1     -45.486 -18.408 -20.192  0.00  0.00    +0.000 C 
BRANCH  19  20
ATOM     20  C   UNL     1     -45.573 -17.219 -19.301  0.00  0.00    +0.000 A 
ATOM     21  C   UNL     1     -44.407 -16.559 -18.900  0.00  0.00    +0.000 A 
ATOM     22  C   UNL     1     -44.490 -15.428 -18.084  0.00  0.00    +0.000 A 
ATOM     23  C   UNL     1     -45.740 -14.943 -17.670  0.00  0.00    +0.000 A 
ATOM     24  C   UNL     1     -46.904 -15.604 -18.082  0.00  0.00    +0.000 A 
ATOM     25  C   UNL     1     -46.821 -16.736 -18.899  0.00  0.00    +0.000 A 
BRANCH  23  26
ATOM     26  C   UNL     1     -45.831 -13.752 -16.810  0.00  0.00    +0.000 C 
ATOM     27  O   UNL     1     -46.630 -12.820 -17.093  0.00  0.00    +0.000 OA
ATOM     28  O   UNL     1     -45.036 -13.644 -15.675  0.00  0.00    +0.000 OA
ENDBRANCH  23  26
ENDBRANCH  19  20
ENDBRANCH  18  19
ENDBRANCH   2  16
TORSDOF 6
ENDMDL
