MODEL 1
REMARK VINA RESULT:      -6.0      0.000      0.000
REMARK  Name = ZINC000096181340 ZINC96181340 PubChem-97457212
REMARK  4 active torsions:
REMARK  status: ('A' for Active; 'I' for Inactive)
REMARK    1  A    between atoms: C_5  and  C_8
REMARK    2  A    between atoms: C_9  and  C_13
REMARK    3  A    between atoms: C_14  and  C_15
REMARK    4  A    between atoms: C_14  and  N_23
REMARK                            x       y       z     vdW  Elec       q    Type
REMARK                         _______ _______ _______ _____ _____    ______ ____
ROOT
ATOM      1  C   UNL     1     -46.346  -4.845 -33.229  0.00  0.00    +0.000 C 
ATOM      2  C   UNL     1     -45.839  -6.030 -34.072  0.00  0.00    +0.000 C 
ATOM      3  C   UNL     1     -46.012  -7.306 -33.238  0.00  0.00    +0.000 C 
ATOM      4  C   UNL     1     -46.549  -6.802 -31.959  0.00  0.00    +0.000 C 
ATOM      5  C   UNL     1     -47.451  -4.674 -30.920  0.00  0.00    +0.000 C 
ATOM      6  O   UNL     1     -46.845  -7.543 -30.985  0.00  0.00    +0.000 OA
ATOM      7  N   UNL     1     -46.714  -5.401 -31.940  0.00  0.00    +0.000 N 
ENDROOT
BRANCH   1  12
ATOM      8  C   UNL     1     -42.285  -0.756 -32.723  0.00  0.00    +0.000 C 
ATOM      9  C   UNL     1     -43.323  -1.812 -32.849  0.00  0.00    +0.000 A 
ATOM     10  C   UNL     1     -43.044  -3.118 -32.438  0.00  0.00    +0.000 A 
ATOM     11  C   UNL     1     -44.022  -4.111 -32.556  0.00  0.00    +0.000 A 
ATOM     12  C   UNL     1     -45.284  -3.799 -33.085  0.00  0.00    +0.000 A 
ATOM     13  C   UNL     1     -45.556  -2.490 -33.497  0.00  0.00    +0.000 A 
ATOM     14  C   UNL     1     -44.578  -1.498 -33.379  0.00  0.00    +0.000 A 
ENDBRANCH   1  12
BRANCH   2  15
ATOM     15  C   UNL     1     -46.601  -6.128 -35.352  0.00  0.00    +0.000 C 
ATOM     16  O   UNL     1     -47.454  -5.245 -35.631  0.00  0.00    +0.000 OA
ATOM     17  N   UNL     1     -46.365  -7.217 -36.248  0.00  0.00    +0.000 NA
BRANCH  17  18
ATOM     18  C   UNL     1     -47.087  -7.355 -37.502  0.00  0.00    +0.000 C 
BRANCH  18  19
ATOM     19  C   UNL     1     -46.344  -6.660 -38.587  0.00  0.00    +0.000 A 
ATOM     20  C   UNL     1     -47.027  -5.879 -39.523  0.00  0.00    +0.000 A 
ATOM     21  C   UNL     1     -46.315  -5.211 -40.520  0.00  0.00    +0.000 A 
ATOM     22  C   UNL     1     -44.924  -5.331 -40.562  0.00  0.00    +0.000 A 
ATOM     23  C   UNL     1     -44.952  -6.748 -38.657  0.00  0.00    +0.000 A 
ATOM     24  N   UNL     1     -44.276  -6.090 -39.638  0.00  0.00    +0.000 NA
ENDBRANCH  18  19
ENDBRANCH  17  18
ENDBRANCH   2  15
TORSDOF 4
ENDMDL
MODEL 2
REMARK VINA RESULT:      -6.0      4.335      6.386
REMARK  Name = ZINC000096181340 ZINC96181340 PubChem-97457212
REMARK  4 active torsions:
REMARK  status: ('A' for Active; 'I' for Inactive)
REMARK    1  A    between atoms: C_5  and  C_8
REMARK    2  A    between atoms: C_9  and  C_13
REMARK    3  A    between atoms: C_14  and  C_15
REMARK    4  A    between atoms: C_14  and  N_23
REMARK                            x       y       z     vdW  Elec       q    Type
REMARK                         _______ _______ _______ _____ _____    ______ ____
ROOT
ATOM      1  C   UNL     1     -45.463  -5.836 -30.233  0.00  0.00    +0.000 C 
ATOM      2  C   UNL     1     -46.765  -5.048 -30.475  0.00  0.00    +0.000 C 
ATOM      3  C   UNL     1     -47.357  -4.690 -29.106  0.00  0.00    +0.000 C 
ATOM      4  C   UNL     1     -46.419  -5.321 -28.158  0.00  0.00    +0.000 C 
ATOM      5  C   UNL     1     -44.167  -6.483 -28.117  0.00  0.00    +0.000 C 
ATOM      6  O   UNL     1     -46.539  -5.254 -26.906  0.00  0.00    +0.000 OA
ATOM      7  N   UNL     1     -45.357  -5.997 -28.795  0.00  0.00    +0.000 N 
ENDROOT
BRANCH   1  12
ATOM      8  C   UNL     1     -45.688 -10.987 -32.856  0.00  0.00    +0.000 C 
ATOM      9  C   UNL     1     -45.624  -9.662 -32.187  0.00  0.00    +0.000 A 
ATOM     10  C   UNL     1     -44.518  -8.831 -32.388  0.00  0.00    +0.000 A 
ATOM     11  C   UNL     1     -44.458  -7.585 -31.758  0.00  0.00    +0.000 A 
ATOM     12  C   UNL     1     -45.506  -7.164 -30.925  0.00  0.00    +0.000 A 
ATOM     13  C   UNL     1     -46.609  -8.001 -30.726  0.00  0.00    +0.000 A 
ATOM     14  C   UNL     1     -46.668  -9.248 -31.356  0.00  0.00    +0.000 A 
ENDBRANCH   1  12
BRANCH   2  15
ATOM     15  C   UNL     1     -46.492  -3.816 -31.272  0.00  0.00    +0.000 C 
ATOM     16  O   UNL     1     -46.446  -2.701 -30.688  0.00  0.00    +0.000 OA
ATOM     17  N   UNL     1     -46.290  -3.903 -32.685  0.00  0.00    +0.000 NA
BRANCH  17  18
ATOM     18  C   UNL     1     -46.026  -2.729 -33.501  0.00  0.00    +0.000 C 
BRANCH  18  19
ATOM     19  C   UNL     1     -44.597  -2.340 -33.371  0.00  0.00    +0.000 A 
ATOM     20  C   UNL     1     -44.250  -1.048 -32.970  0.00  0.00    +0.000 A 
ATOM     21  C   UNL     1     -42.905  -0.703 -32.828  0.00  0.00    +0.000 A 
ATOM     22  C   UNL     1     -41.923  -1.663 -33.086  0.00  0.00    +0.000 A 
ATOM     23  C   UNL     1     -43.586  -3.274 -33.611  0.00  0.00    +0.000 A 
ATOM     24  N   UNL     1     -42.281  -2.919 -33.468  0.00  0.00    +0.000 NA
ENDBRANCH  18  19
ENDBRANCH  17  18
ENDBRANCH   2  15
TORSDOF 4
ENDMDL
MODEL 3
REMARK VINA RESULT:      -5.9      4.531      6.591
REMARK  Name = ZINC000096181340 ZINC96181340 PubChem-97457212
REMARK  4 active torsions:
REMARK  status: ('A' for Active; 'I' for Inactive)
REMARK    1  A    between atoms: C_5  and  C_8
REMARK    2  A    between atoms: C_9  and  C_13
REMARK    3  A    between atoms: C_14  and  C_15
REMARK    4  A    between atoms: C_14  and  N_23
REMARK                            x       y       z     vdW  Elec       q    Type
REMARK                         _______ _______ _______ _____ _____    ______ ____
ROOT
ATOM      1  C   UNL     1     -46.260  -6.752 -29.357  0.00  0.00    +0.000 C 
ATOM      2  C   UNL     1     -44.823  -6.516 -29.858  0.00  0.00    +0.000 C 
ATOM      3  C   UNL     1     -44.104  -7.871 -29.873  0.00  0.00    +0.000 C 
ATOM      4  C   UNL     1     -45.120  -8.798 -29.339  0.00  0.00    +0.000 C 
ATOM      5  C   UNL     1     -47.577  -8.858 -28.720  0.00  0.00    +0.000 C 
ATOM      6  O   UNL     1     -44.932 -10.034 -29.195  0.00  0.00    +0.000 OA
ATOM      7  N   UNL     1     -46.338  -8.160 -29.018  0.00  0.00    +0.000 N 
ENDROOT
BRANCH   1  12
ATOM      8  C   UNL     1     -47.428  -3.364 -24.816  0.00  0.00    +0.000 C 
ATOM      9  C   UNL     1     -47.126  -4.240 -25.977  0.00  0.00    +0.000 A 
ATOM     10  C   UNL     1     -46.470  -5.459 -25.780  0.00  0.00    +0.000 A 
ATOM     11  C   UNL     1     -46.185  -6.283 -26.873  0.00  0.00    +0.000 A 
ATOM     12  C   UNL     1     -46.559  -5.891 -28.169  0.00  0.00    +0.000 A 
ATOM     13  C   UNL     1     -47.213  -4.669 -28.359  0.00  0.00    +0.000 A 
ATOM     14  C   UNL     1     -47.497  -3.845 -27.266  0.00  0.00    +0.000 A 
ENDBRANCH   1  12
BRANCH   2  15
ATOM     15  C   UNL     1     -44.836  -5.909 -31.223  0.00  0.00    +0.000 C 
ATOM     16  O   UNL     1     -44.586  -6.634 -32.222  0.00  0.00    +0.000 OA
ATOM     17  N   UNL     1     -45.125  -4.519 -31.389  0.00  0.00    +0.000 NA
BRANCH  17  18
ATOM     18  C   UNL     1     -45.143  -3.886 -32.698  0.00  0.00    +0.000 C 
BRANCH  18  19
ATOM     19  C   UNL     1     -44.161  -2.770 -32.727  0.00  0.00    +0.000 A 
ATOM     20  C   UNL     1     -44.519  -1.528 -33.258  0.00  0.00    +0.000 A 
ATOM     21  C   UNL     1     -43.596  -0.481 -33.257  0.00  0.00    +0.000 A 
ATOM     22  C   UNL     1     -42.325  -0.692 -32.716  0.00  0.00    +0.000 A 
ATOM     23  C   UNL     1     -42.883  -2.939 -32.188  0.00  0.00    +0.000 A 
ATOM     24  N   UNL     1     -41.997  -1.906 -32.197  0.00  0.00    +0.000 NA
ENDBRANCH  18  19
ENDBRANCH  17  18
ENDBRANCH   2  15
TORSDOF 4
ENDMDL
