MODEL 1
REMARK VINA RESULT:      -6.1      0.000      0.000
REMARK  Name = ZINC000408606915 PubChem-125618295
REMARK  6 active torsions:
REMARK  status: ('A' for Active; 'I' for Inactive)
REMARK    1  A    between atoms: C_2  and  C_3
REMARK    2  A    between atoms: C_3  and  N_21
REMARK    3  A    between atoms: C_4  and  C_5
REMARK    4  A    between atoms: C_6  and  C_7
REMARK    5  A    between atoms: C_8  and  N_24
REMARK    6  A    between atoms: N_22  and  N_23
REMARK                            x       y       z     vdW  Elec       q    Type
REMARK                         _______ _______ _______ _____ _____    ______ ____
ROOT
ATOM      1  C   UNL     1     -45.049 -15.865 -26.216  0.00  0.00    +0.000 A 
ATOM      2  C   UNL     1     -44.589 -15.439 -27.466  0.00  0.00    +0.000 A 
ATOM      3  C   UNL     1     -45.100 -14.162 -27.591  0.00  0.00    +0.000 A 
ATOM      4  C   UNL     1     -44.922 -13.238 -28.618  0.00  0.00    +0.000 A 
ATOM      5  C   UNL     1     -45.506 -11.967 -28.465  0.00  0.00    +0.000 A 
ATOM      6  C   UNL     1     -46.228 -11.649 -27.295  0.00  0.00    +0.000 A 
ATOM      7  C   UNL     1     -46.389 -12.600 -26.273  0.00  0.00    +0.000 A 
ATOM      8  C   UNL     1     -45.823 -13.862 -26.465  0.00  0.00    +0.000 A 
ATOM      9  N   UNL     1     -45.813 -14.912 -25.625  0.00  0.00    +0.000 N 
ATOM     10 CL   UNL     1     -45.319 -10.768 -29.725  0.00  0.00    +0.000 Cl
ENDROOT
BRANCH   9  12
ATOM     11  C   UNL     1     -45.604 -14.648 -23.141  0.00  0.00    +0.000 C 
ATOM     12  N   UNL     1     -46.343 -14.974 -24.322  0.00  0.00    +0.000 NA
ATOM     13  O   UNL     1     -44.514 -14.020 -23.223  0.00  0.00    +0.000 OA
BRANCH  11  14
ATOM     14  C   UNL     1     -46.146 -14.999 -21.824  0.00  0.00    +0.000 C 
ATOM     15  N   UNL     1     -45.675 -16.167 -21.150  0.00  0.00    +0.000 NA
ATOM     16  O   UNL     1     -47.026 -14.269 -21.292  0.00  0.00    +0.000 OA
BRANCH  15  17
ATOM     17  C   UNL     1     -46.180 -16.559 -19.846  0.00  0.00    +0.000 C 
BRANCH  17  19
ATOM     18  C   UNL     1     -46.667 -18.951 -19.933  0.00  0.00    +0.000 C 
ATOM     19  C   UNL     1     -45.826 -17.982 -19.585  0.00  0.00    +0.000 C 
ENDBRANCH  17  19
ENDBRANCH  15  17
ENDBRANCH  11  14
ENDBRANCH   9  12
BRANCH   1  20
ATOM     20  C   UNL     1     -44.737 -17.180 -25.628  0.00  0.00    +0.000 C 
ATOM     21  N   UNL     1     -43.555 -17.329 -24.828  0.00  0.00    +0.000 NA
ATOM     22  O   UNL     1     -45.502 -18.160 -25.831  0.00  0.00    +0.000 OA
BRANCH  21  23
ATOM     23  C   UNL     1     -43.098 -18.524 -24.180  0.00  0.00    +0.000 A 
ATOM     24  C   UNL     1     -42.234 -19.377 -24.875  0.00  0.00    +0.000 A 
ATOM     25  C   UNL     1     -41.768 -20.552 -24.277  0.00  0.00    +0.000 A 
ATOM     26  C   UNL     1     -42.163 -20.879 -22.977  0.00  0.00    +0.000 A 
ATOM     27  C   UNL     1     -43.025 -20.032 -22.276  0.00  0.00    +0.000 A 
ATOM     28  C   UNL     1     -43.491 -18.859 -22.875  0.00  0.00    +0.000 A 
ATOM     29 CL   UNL     1     -41.579 -22.350 -22.229  0.00  0.00    +0.000 Cl
ENDBRANCH  21  23
ENDBRANCH   1  20
TORSDOF 6
ENDMDL
MODEL 2
REMARK VINA RESULT:      -6.1      8.037     12.161
REMARK  Name = ZINC000408606915 PubChem-125618295
REMARK  6 active torsions:
REMARK  status: ('A' for Active; 'I' for Inactive)
REMARK    1  A    between atoms: C_2  and  C_3
REMARK    2  A    between atoms: C_3  and  N_21
REMARK    3  A    between atoms: C_4  and  C_5
REMARK    4  A    between atoms: C_6  and  C_7
REMARK    5  A    between atoms: C_8  and  N_24
REMARK    6  A    between atoms: N_22  and  N_23
REMARK                            x       y       z     vdW  Elec       q    Type
REMARK                         _______ _______ _______ _____ _____    ______ ____
ROOT
ATOM      1  C   UNL     1     -46.746  -6.565 -26.976  0.00  0.00    +0.000 A 
ATOM      2  C   UNL     1     -46.740  -6.364 -25.593  0.00  0.00    +0.000 A 
ATOM      3  C   UNL     1     -46.914  -5.000 -25.454  0.00  0.00    +0.000 A 
ATOM      4  C   UNL     1     -47.037  -4.240 -24.293  0.00  0.00    +0.000 A 
ATOM      5  C   UNL     1     -47.275  -2.861 -24.435  0.00  0.00    +0.000 A 
ATOM      6  C   UNL     1     -47.405  -2.286 -25.717  0.00  0.00    +0.000 A 
ATOM      7  C   UNL     1     -47.281  -3.078 -26.871  0.00  0.00    +0.000 A 
ATOM      8  C   UNL     1     -47.014  -4.438 -26.701  0.00  0.00    +0.000 A 
ATOM      9  N   UNL     1     -46.890  -5.391 -27.641  0.00  0.00    +0.000 N 
ATOM     10 CL   UNL     1     -47.433  -1.857 -23.010  0.00  0.00    +0.000 Cl
ENDROOT
BRANCH   9  12
ATOM     11  C   UNL     1     -45.950  -5.100 -29.947  0.00  0.00    +0.000 C 
ATOM     12  N   UNL     1     -47.042  -5.248 -29.033  0.00  0.00    +0.000 NA
ATOM     13  O   UNL     1     -44.773  -5.367 -29.583  0.00  0.00    +0.000 OA
BRANCH  11  14
ATOM     14  C   UNL     1     -46.211  -4.688 -31.330  0.00  0.00    +0.000 C 
ATOM     15  N   UNL     1     -45.554  -3.537 -31.865  0.00  0.00    +0.000 NA
ATOM     16  O   UNL     1     -47.013  -5.350 -32.043  0.00  0.00    +0.000 OA
BRANCH  15  17
ATOM     17  C   UNL     1     -45.777  -3.086 -33.227  0.00  0.00    +0.000 C 
BRANCH  17  19
ATOM     18  C   UNL     1     -44.414  -1.151 -32.629  0.00  0.00    +0.000 C 
ATOM     19  C   UNL     1     -44.797  -2.016 -33.562  0.00  0.00    +0.000 C 
ENDBRANCH  17  19
ENDBRANCH  15  17
ENDBRANCH  11  14
ENDBRANCH   9  12
BRANCH   1  20
ATOM     20  C   UNL     1     -46.610  -7.885 -27.617  0.00  0.00    +0.000 C 
ATOM     21  N   UNL     1     -45.705  -8.848 -27.056  0.00  0.00    +0.000 NA
ATOM     22  O   UNL     1     -47.281  -8.159 -28.648  0.00  0.00    +0.000 OA
BRANCH  21  23
ATOM     23  C   UNL     1     -45.448 -10.173 -27.542  0.00  0.00    +0.000 A 
ATOM     24  C   UNL     1     -44.261 -10.414 -28.241  0.00  0.00    +0.000 A 
ATOM     25  C   UNL     1     -43.975 -11.692 -28.730  0.00  0.00    +0.000 A 
ATOM     26  C   UNL     1     -44.877 -12.739 -28.520  0.00  0.00    +0.000 A 
ATOM     27  C   UNL     1     -46.065 -12.507 -27.821  0.00  0.00    +0.000 A 
ATOM     28  C   UNL     1     -46.349 -11.229 -27.334  0.00  0.00    +0.000 A 
ATOM     29 CL   UNL     1     -44.519 -14.339 -29.132  0.00  0.00    +0.000 Cl
ENDBRANCH  21  23
ENDBRANCH   1  20
TORSDOF 6
ENDMDL
MODEL 3
REMARK VINA RESULT:      -6.0     10.485     13.646
REMARK  Name = ZINC000408606915 PubChem-125618295
REMARK  6 active torsions:
REMARK  status: ('A' for Active; 'I' for Inactive)
REMARK    1  A    between atoms: C_2  and  C_3
REMARK    2  A    between atoms: C_3  and  N_21
REMARK    3  A    between atoms: C_4  and  C_5
REMARK    4  A    between atoms: C_6  and  C_7
REMARK    5  A    between atoms: C_8  and  N_24
REMARK    6  A    between atoms: N_22  and  N_23
REMARK                            x       y       z     vdW  Elec       q    Type
REMARK                         _______ _______ _______ _____ _____    ______ ____
ROOT
ATOM      1  C   UNL     1     -46.544  -8.906 -31.468  0.00  0.00    +0.000 A 
ATOM      2  C   UNL     1     -46.160 -10.249 -31.507  0.00  0.00    +0.000 A 
ATOM      3  C   UNL     1     -45.889 -10.479 -32.842  0.00  0.00    +0.000 A 
ATOM      4  C   UNL     1     -45.416 -11.634 -33.460  0.00  0.00    +0.000 A 
ATOM      5  C   UNL     1     -45.159 -11.580 -34.842  0.00  0.00    +0.000 A 
ATOM      6  C   UNL     1     -45.358 -10.381 -35.560  0.00  0.00    +0.000 A 
ATOM      7  C   UNL     1     -45.832  -9.229 -34.910  0.00  0.00    +0.000 A 
ATOM      8  C   UNL     1     -46.107  -9.320 -33.543  0.00  0.00    +0.000 A 
ATOM      9  N   UNL     1     -46.530  -8.356 -32.708  0.00  0.00    +0.000 N 
ATOM     10 CL   UNL     1     -44.568 -13.002 -35.671  0.00  0.00    +0.000 Cl
ENDROOT
BRANCH   9  12
ATOM     11  C   UNL     1     -45.725  -6.020 -33.135  0.00  0.00    +0.000 C 
ATOM     12  N   UNL     1     -46.760  -7.000 -33.009  0.00  0.00    +0.000 NA
ATOM     13  O   UNL     1     -44.521  -6.376 -33.254  0.00  0.00    +0.000 OA
BRANCH  11  14
ATOM     14  C   UNL     1     -46.073  -4.596 -33.180  0.00  0.00    +0.000 C 
ATOM     15  N   UNL     1     -45.041  -3.616 -33.313  0.00  0.00    +0.000 NA
ATOM     16  O   UNL     1     -47.280  -4.241 -33.102  0.00  0.00    +0.000 OA
BRANCH  15  17
ATOM     17  C   UNL     1     -45.332  -2.194 -33.363  0.00  0.00    +0.000 C 
BRANCH  17  19
ATOM     18  C   UNL     1     -44.039  -0.391 -32.343  0.00  0.00    +0.000 C 
ATOM     19  C   UNL     1     -44.719  -1.522 -32.184  0.00  0.00    +0.000 C 
ENDBRANCH  17  19
ENDBRANCH  15  17
ENDBRANCH  11  14
ENDBRANCH   9  12
BRANCH   1  20
ATOM     20  C   UNL     1     -46.914  -8.191 -30.233  0.00  0.00    +0.000 C 
ATOM     21  N   UNL     1     -46.304  -6.924 -29.945  0.00  0.00    +0.000 NA
ATOM     22  O   UNL     1     -47.756  -8.693 -29.441  0.00  0.00    +0.000 OA
BRANCH  21  23
ATOM     23  C   UNL     1     -46.543  -6.093 -28.800  0.00  0.00    +0.000 A 
ATOM     24  C   UNL     1     -46.040  -6.498 -27.559  0.00  0.00    +0.000 A 
ATOM     25  C   UNL     1     -46.252  -5.715 -26.421  0.00  0.00    +0.000 A 
ATOM     26  C   UNL     1     -46.970  -4.520 -26.518  0.00  0.00    +0.000 A 
ATOM     27  C   UNL     1     -47.476  -4.108 -27.754  0.00  0.00    +0.000 A 
ATOM     28  C   UNL     1     -47.263  -4.892 -28.891  0.00  0.00    +0.000 A 
ATOM     29 CL   UNL     1     -47.236  -3.540 -25.093  0.00  0.00    +0.000 Cl
ENDBRANCH  21  23
ENDBRANCH   1  20
TORSDOF 6
ENDMDL
