MODEL 1
REMARK VINA RESULT:      -6.2      0.000      0.000
REMARK  Name = ZINC000120428911 PubChem-124568485
REMARK  3 active torsions:
REMARK  status: ('A' for Active; 'I' for Inactive)
REMARK    1  A    between atoms: C_6  and  N_20
REMARK    2  A    between atoms: C_7  and  C_8
REMARK    3  A    between atoms: C_13  and  C_14
REMARK                            x       y       z     vdW  Elec       q    Type
REMARK                         _______ _______ _______ _____ _____    ______ ____
ROOT
ATOM      1  C   UNL     1     -46.013  -3.333 -31.484  0.00  0.00    +0.000 C 
ATOM      2  C   UNL     1     -46.892  -3.383 -32.736  0.00  0.00    +0.000 C 
ATOM      3  C   UNL     1     -46.818  -4.738 -33.431  0.00  0.00    +0.000 C 
ATOM      4  C   UNL     1     -45.402  -5.185 -33.618  0.00  0.00    +0.000 C 
ATOM      5  C   UNL     1     -43.087  -5.460 -32.708  0.00  0.00    +0.000 C 
ATOM      6  C   UNL     1     -44.542  -3.632 -31.800  0.00  0.00    +0.000 C 
ATOM      7  N   UNL     1     -44.375  -4.783 -32.695  0.00  0.00    +0.000 N 
ATOM      8  O   UNL     1     -45.133  -5.967 -34.569  0.00  0.00    +0.000 OA
ENDROOT
BRANCH   6   9
ATOM      9  C   UNL     1     -43.849  -2.426 -32.353  0.00  0.00    +0.000 A 
ATOM     10  C   UNL     1     -44.341  -1.535 -33.291  0.00  0.00    +0.000 A 
ATOM     11  C   UNL     1     -41.119  -0.132 -32.730  0.00  0.00    +0.000 C 
ATOM     12  C   UNL     1     -42.574  -2.012 -32.026  0.00  0.00    +0.000 A 
ATOM     13  N   UNL     1     -43.386  -0.611 -33.514  0.00  0.00    +0.000 NA
ATOM     14  N   UNL     1     -42.345  -0.908 -32.755  0.00  0.00    +0.000 N 
ENDBRANCH   6   9
BRANCH   1  15
ATOM     15  C   UNL     1     -46.544  -4.191 -30.377  0.00  0.00    +0.000 C 
ATOM     16  N   UNL     1     -45.703  -5.181 -29.766  0.00  0.00    +0.000 NA
ATOM     17  O   UNL     1     -47.740  -4.040 -30.013  0.00  0.00    +0.000 OA
BRANCH  16  23
ATOM     18  C   UNL     1     -46.329  -6.177 -24.929  0.00  0.00    +0.000 C 
ATOM     19  C   UNL     1     -46.376  -6.595 -26.354  0.00  0.00    +0.000 A 
ATOM     20  C   UNL     1     -46.778  -7.891 -26.690  0.00  0.00    +0.000 A 
ATOM     21  C   UNL     1     -46.821  -8.282 -28.031  0.00  0.00    +0.000 A 
ATOM     22  C   UNL     1     -46.464  -7.378 -29.034  0.00  0.00    +0.000 A 
ATOM     23  C   UNL     1     -46.062  -6.078 -28.708  0.00  0.00    +0.000 A 
ATOM     24  C   UNL     1     -46.019  -5.692 -27.359  0.00  0.00    +0.000 A 
ATOM     25  F   UNL     1     -47.211  -9.538 -28.357  0.00  0.00    +0.000 F 
ENDBRANCH  16  23
ENDBRANCH   1  15
TORSDOF 3
ENDMDL
MODEL 2
REMARK VINA RESULT:      -6.2     11.126     14.238
REMARK  Name = ZINC000120428911 PubChem-124568485
REMARK  3 active torsions:
REMARK  status: ('A' for Active; 'I' for Inactive)
REMARK    1  A    between atoms: C_6  and  N_20
REMARK    2  A    between atoms: C_7  and  C_8
REMARK    3  A    between atoms: C_13  and  C_14
REMARK                            x       y       z     vdW  Elec       q    Type
REMARK                         _______ _______ _______ _____ _____    ______ ____
ROOT
ATOM      1  C   UNL     1     -44.949 -17.591 -25.692  0.00  0.00    +0.000 C 
ATOM      2  C   UNL     1     -44.273 -18.788 -26.364  0.00  0.00    +0.000 C 
ATOM      3  C   UNL     1     -42.937 -19.129 -25.713  0.00  0.00    +0.000 C 
ATOM      4  C   UNL     1     -42.080 -17.913 -25.546  0.00  0.00    +0.000 C 
ATOM      5  C   UNL     1     -41.849 -15.508 -24.898  0.00  0.00    +0.000 C 
ATOM      6  C   UNL     1     -44.065 -16.337 -25.722  0.00  0.00    +0.000 C 
ATOM      7  N   UNL     1     -42.671 -16.616 -25.360  0.00  0.00    +0.000 N 
ATOM      8  O   UNL     1     -40.828 -18.053 -25.516  0.00  0.00    +0.000 OA
ENDROOT
BRANCH   6   9
ATOM      9  C   UNL     1     -44.141 -15.652 -27.052  0.00  0.00    +0.000 A 
ATOM     10  C   UNL     1     -43.241 -15.755 -28.099  0.00  0.00    +0.000 A 
ATOM     11  C   UNL     1     -45.569 -13.458 -29.502  0.00  0.00    +0.000 C 
ATOM     12  C   UNL     1     -45.128 -14.773 -27.447  0.00  0.00    +0.000 A 
ATOM     13  N   UNL     1     -43.683 -14.962 -29.094  0.00  0.00    +0.000 NA
ATOM     14  N   UNL     1     -44.804 -14.387 -28.691  0.00  0.00    +0.000 N 
ENDBRANCH   6   9
BRANCH   1  15
ATOM     15  C   UNL     1     -45.437 -17.910 -24.312  0.00  0.00    +0.000 C 
ATOM     16  N   UNL     1     -45.055 -17.082 -23.203  0.00  0.00    +0.000 NA
ATOM     17  O   UNL     1     -46.166 -18.924 -24.145  0.00  0.00    +0.000 OA
BRANCH  16  23
ATOM     18  C   UNL     1     -46.593 -15.238 -18.842  0.00  0.00    +0.000 C 
ATOM     19  C   UNL     1     -46.181 -16.387 -19.689  0.00  0.00    +0.000 A 
ATOM     20  C   UNL     1     -46.153 -17.677 -19.153  0.00  0.00    +0.000 A 
ATOM     21  C   UNL     1     -45.765 -18.756 -19.951  0.00  0.00    +0.000 A 
ATOM     22  C   UNL     1     -45.405 -18.545 -21.285  0.00  0.00    +0.000 A 
ATOM     23  C   UNL     1     -45.432 -17.257 -21.831  0.00  0.00    +0.000 A 
ATOM     24  C   UNL     1     -45.821 -16.177 -21.024  0.00  0.00    +0.000 A 
ATOM     25  F   UNL     1     -45.738 -20.007 -19.432  0.00  0.00    +0.000 F 
ENDBRANCH  16  23
ENDBRANCH   1  15
TORSDOF 3
ENDMDL
MODEL 3
REMARK VINA RESULT:      -6.1     10.720     14.889
REMARK  Name = ZINC000120428911 PubChem-124568485
REMARK  3 active torsions:
REMARK  status: ('A' for Active; 'I' for Inactive)
REMARK    1  A    between atoms: C_6  and  N_20
REMARK    2  A    between atoms: C_7  and  C_8
REMARK    3  A    between atoms: C_13  and  C_14
REMARK                            x       y       z     vdW  Elec       q    Type
REMARK                         _______ _______ _______ _____ _____    ______ ____
ROOT
ATOM      1  C   UNL     1     -44.531 -16.555 -23.912  0.00  0.00    +0.000 C 
ATOM      2  C   UNL     1     -43.031 -16.440 -24.195  0.00  0.00    +0.000 C 
ATOM      3  C   UNL     1     -42.642 -17.128 -25.499  0.00  0.00    +0.000 C 
ATOM      4  C   UNL     1     -43.210 -18.509 -25.584  0.00  0.00    +0.000 C 
ATOM      5  C   UNL     1     -45.137 -20.074 -25.265  0.00  0.00    +0.000 C 
ATOM      6  C   UNL     1     -44.994 -18.016 -23.842  0.00  0.00    +0.000 C 
ATOM      7  N   UNL     1     -44.448 -18.838 -24.928  0.00  0.00    +0.000 N 
ATOM      8  O   UNL     1     -42.615 -19.369 -26.288  0.00  0.00    +0.000 OA
ENDROOT
BRANCH   6   9
ATOM      9  C   UNL     1     -44.681 -18.622 -22.509  0.00  0.00    +0.000 A 
ATOM     10  C   UNL     1     -43.608 -19.438 -22.192  0.00  0.00    +0.000 A 
ATOM     11  C   UNL     1     -45.259 -19.326 -19.041  0.00  0.00    +0.000 C 
ATOM     12  C   UNL     1     -45.438 -18.480 -21.365  0.00  0.00    +0.000 A 
ATOM     13  N   UNL     1     -43.720 -19.769 -20.891  0.00  0.00    +0.000 NA
ATOM     14  N   UNL     1     -44.811 -19.192 -20.415  0.00  0.00    +0.000 N 
ENDBRANCH   6   9
BRANCH   1  15
ATOM     15  C   UNL     1     -45.357 -15.741 -24.860  0.00  0.00    +0.000 C 
ATOM     16  N   UNL     1     -44.761 -14.654 -25.584  0.00  0.00    +0.000 NA
ATOM     17  O   UNL     1     -46.579 -16.015 -24.990  0.00  0.00    +0.000 OA
BRANCH  16  23
ATOM     18  C   UNL     1     -47.246 -10.468 -26.626  0.00  0.00    +0.000 C 
ATOM     19  C   UNL     1     -46.629 -11.749 -27.056  0.00  0.00    +0.000 A 
ATOM     20  C   UNL     1     -46.676 -12.131 -28.400  0.00  0.00    +0.000 A 
ATOM     21  C   UNL     1     -46.095 -13.337 -28.803  0.00  0.00    +0.000 A 
ATOM     22  C   UNL     1     -45.467 -14.158 -27.863  0.00  0.00    +0.000 A 
ATOM     23  C   UNL     1     -45.414 -13.783 -26.516  0.00  0.00    +0.000 A 
ATOM     24  C   UNL     1     -46.000 -12.572 -26.118  0.00  0.00    +0.000 A 
ATOM     25  F   UNL     1     -46.141 -13.708 -30.105  0.00  0.00    +0.000 F 
ENDBRANCH  16  23
ENDBRANCH   1  15
TORSDOF 3
ENDMDL
