MODEL 1
REMARK VINA RESULT:      -6.1      0.000      0.000
REMARK  Name = ZINC000270349038 PubChem-125135852
REMARK  4 active torsions:
REMARK  status: ('A' for Active; 'I' for Inactive)
REMARK    1  A    between atoms: C_4  and  C_5
REMARK    2  A    between atoms: C_5  and  N_19
REMARK    3  A    between atoms: C_6  and  C_7
REMARK    4  A    between atoms: C_11  and  C_12
REMARK                            x       y       z     vdW  Elec       q    Type
REMARK                         _______ _______ _______ _____ _____    ______ ____
ROOT
ATOM      1  C   UNL     1     -45.795 -17.133 -23.898  0.00  0.00    +0.000 C 
ATOM      2  C   UNL     1     -45.734 -16.200 -25.115  0.00  0.00    +0.000 C 
ATOM      3  C   UNL     1     -44.804 -15.140 -24.681  0.00  0.00    +0.000 C 
ATOM      4  C   UNL     1     -43.206 -14.591 -22.790  0.00  0.00    +0.000 C 
ATOM      5  C   UNL     1     -44.815 -16.589 -22.841  0.00  0.00    +0.000 C 
ATOM      6  N   UNL     1     -44.307 -15.340 -23.375  0.00  0.00    +0.000 N 
ATOM      7  O   UNL     1     -44.473 -14.162 -25.401  0.00  0.00    +0.000 OA
ENDROOT
BRANCH   5   8
ATOM      8  C   UNL     1     -45.504 -16.376 -21.528  0.00  0.00    +0.000 A 
ATOM      9  C   UNL     1     -45.542 -17.422 -20.601  0.00  0.00    +0.000 A 
ATOM     10  C   UNL     1     -46.180 -17.248 -19.369  0.00  0.00    +0.000 A 
ATOM     11  C   UNL     1     -46.783 -16.024 -19.061  0.00  0.00    +0.000 A 
ATOM     12  C   UNL     1     -46.749 -14.975 -19.984  0.00  0.00    +0.000 A 
ATOM     13  C   UNL     1     -46.112 -15.149 -21.216  0.00  0.00    +0.000 A 
ATOM     14  F   UNL     1     -47.401 -15.856 -17.867  0.00  0.00    +0.000 F 
ENDBRANCH   5   8
BRANCH   1  15
ATOM     15  C   UNL     1     -45.434 -18.529 -24.282  0.00  0.00    +0.000 C 
ATOM     16  N   UNL     1     -44.203 -19.103 -23.834  0.00  0.00    +0.000 NA
ATOM     17  O   UNL     1     -46.222 -19.195 -25.004  0.00  0.00    +0.000 OA
BRANCH  16  18
ATOM     18  C   UNL     1     -43.813 -20.459 -24.179  0.00  0.00    +0.000 C 
BRANCH  18  22
ATOM     19  C   UNL     1     -40.136 -20.344 -20.933  0.00  0.00    +0.000 C 
ATOM     20  C   UNL     1     -41.156 -20.852 -21.889  0.00  0.00    +0.000 A 
ATOM     21  C   UNL     1     -41.355 -22.170 -22.237  0.00  0.00    +0.000 A 
ATOM     22  C   UNL     1     -42.731 -20.912 -23.266  0.00  0.00    +0.000 A 
ATOM     23  N   UNL     1     -42.370 -22.204 -23.126  0.00  0.00    +0.000 NA
ATOM     24  O   UNL     1     -42.009 -20.099 -22.533  0.00  0.00    +0.000 OA
ENDBRANCH  18  22
ENDBRANCH  16  18
ENDBRANCH   1  15
TORSDOF 4
ENDMDL
MODEL 2
REMARK VINA RESULT:      -6.0      3.301      5.124
REMARK  Name = ZINC000270349038 PubChem-125135852
REMARK  4 active torsions:
REMARK  status: ('A' for Active; 'I' for Inactive)
REMARK    1  A    between atoms: C_4  and  C_5
REMARK    2  A    between atoms: C_5  and  N_19
REMARK    3  A    between atoms: C_6  and  C_7
REMARK    4  A    between atoms: C_11  and  C_12
REMARK                            x       y       z     vdW  Elec       q    Type
REMARK                         _______ _______ _______ _____ _____    ______ ____
ROOT
ATOM      1  C   UNL     1     -46.295 -15.252 -21.020  0.00  0.00    +0.000 C 
ATOM      2  C   UNL     1     -47.040 -14.037 -20.451  0.00  0.00    +0.000 C 
ATOM      3  C   UNL     1     -46.378 -13.814 -19.151  0.00  0.00    +0.000 C 
ATOM      4  C   UNL     1     -44.373 -14.603 -17.814  0.00  0.00    +0.000 C 
ATOM      5  C   UNL     1     -45.170 -15.617 -20.032  0.00  0.00    +0.000 C 
ATOM      6  N   UNL     1     -45.338 -14.733 -18.895  0.00  0.00    +0.000 N 
ATOM      7  O   UNL     1     -46.694 -12.893 -18.354  0.00  0.00    +0.000 OA
ENDROOT
BRANCH   5   8
ATOM      8  C   UNL     1     -45.264 -17.055 -19.619  0.00  0.00    +0.000 A 
ATOM      9  C   UNL     1     -46.482 -17.726 -19.761  0.00  0.00    +0.000 A 
ATOM     10  C   UNL     1     -46.595 -19.067 -19.383  0.00  0.00    +0.000 A 
ATOM     11  C   UNL     1     -45.487 -19.742 -18.860  0.00  0.00    +0.000 A 
ATOM     12  C   UNL     1     -44.267 -19.076 -18.715  0.00  0.00    +0.000 A 
ATOM     13  C   UNL     1     -44.154 -17.734 -19.093  0.00  0.00    +0.000 A 
ATOM     14  F   UNL     1     -45.597 -21.041 -18.493  0.00  0.00    +0.000 F 
ENDBRANCH   5   8
BRANCH   1  15
ATOM     15  C   UNL     1     -45.732 -14.944 -22.368  0.00  0.00    +0.000 C 
ATOM     16  N   UNL     1     -46.499 -15.211 -23.545  0.00  0.00    +0.000 NA
ATOM     17  O   UNL     1     -44.578 -14.449 -22.457  0.00  0.00    +0.000 OA
BRANCH  16  18
ATOM     18  C   UNL     1     -45.993 -14.923 -24.876  0.00  0.00    +0.000 C 
BRANCH  18  22
ATOM     19  C   UNL     1     -44.865 -19.634 -25.660  0.00  0.00    +0.000 C 
ATOM     20  C   UNL     1     -44.856 -18.150 -25.750  0.00  0.00    +0.000 A 
ATOM     21  C   UNL     1     -44.023 -17.391 -26.542  0.00  0.00    +0.000 A 
ATOM     22  C   UNL     1     -45.337 -16.138 -25.431  0.00  0.00    +0.000 A 
ATOM     23  N   UNL     1     -44.335 -16.095 -26.331  0.00  0.00    +0.000 NA
ATOM     24  O   UNL     1     -45.652 -17.360 -25.076  0.00  0.00    +0.000 OA
ENDBRANCH  18  22
ENDBRANCH  16  18
ENDBRANCH   1  15
TORSDOF 4
ENDMDL
MODEL 3
REMARK VINA RESULT:      -6.0     13.464     16.729
REMARK  Name = ZINC000270349038 PubChem-125135852
REMARK  4 active torsions:
REMARK  status: ('A' for Active; 'I' for Inactive)
REMARK    1  A    between atoms: C_4  and  C_5
REMARK    2  A    between atoms: C_5  and  N_19
REMARK    3  A    between atoms: C_6  and  C_7
REMARK    4  A    between atoms: C_11  and  C_12
REMARK                            x       y       z     vdW  Elec       q    Type
REMARK                         _______ _______ _______ _____ _____    ______ ____
ROOT
ATOM      1  C   UNL     1     -46.156  -3.774 -32.063  0.00  0.00    +0.000 C 
ATOM      2  C   UNL     1     -47.162  -4.394 -33.041  0.00  0.00    +0.000 C 
ATOM      3  C   UNL     1     -46.301  -5.109 -34.003  0.00  0.00    +0.000 C 
ATOM      4  C   UNL     1     -43.880  -5.784 -34.336  0.00  0.00    +0.000 C 
ATOM      5  C   UNL     1     -44.749  -4.243 -32.478  0.00  0.00    +0.000 C 
ATOM      6  N   UNL     1     -44.926  -4.995 -33.705  0.00  0.00    +0.000 N 
ATOM      7  O   UNL     1     -46.741  -5.766 -34.982  0.00  0.00    +0.000 OA
ENDROOT
BRANCH   5   8
ATOM      8  C   UNL     1     -43.833  -3.076 -32.686  0.00  0.00    +0.000 A 
ATOM      9  C   UNL     1     -44.375  -1.846 -33.073  0.00  0.00    +0.000 A 
ATOM     10  C   UNL     1     -43.541  -0.742 -33.275  0.00  0.00    +0.000 A 
ATOM     11  C   UNL     1     -42.160  -0.865 -33.089  0.00  0.00    +0.000 A 
ATOM     12  C   UNL     1     -41.614  -2.091 -32.702  0.00  0.00    +0.000 A 
ATOM     13  C   UNL     1     -42.447  -3.196 -32.501  0.00  0.00    +0.000 A 
ATOM     14  F   UNL     1     -41.354   0.205 -33.284  0.00  0.00    +0.000 F 
ENDBRANCH   5   8
BRANCH   1  15
ATOM     15  C   UNL     1     -46.457  -4.188 -30.661  0.00  0.00    +0.000 C 
ATOM     16  N   UNL     1     -46.433  -5.571 -30.299  0.00  0.00    +0.000 NA
ATOM     17  O   UNL     1     -46.733  -3.308 -29.802  0.00  0.00    +0.000 OA
BRANCH  16  18
ATOM     18  C   UNL     1     -46.715  -6.018 -28.946  0.00  0.00    +0.000 C 
BRANCH  18  22
ATOM     19  C   UNL     1     -43.555  -7.396 -25.454  0.00  0.00    +0.000 C 
ATOM     20  C   UNL     1     -44.098  -6.917 -26.753  0.00  0.00    +0.000 A 
ATOM     21  C   UNL     1     -43.358  -6.555 -27.857  0.00  0.00    +0.000 A 
ATOM     22  C   UNL     1     -45.439  -6.338 -28.252  0.00  0.00    +0.000 A 
ATOM     23  N   UNL     1     -44.226  -6.180 -28.820  0.00  0.00    +0.000 NA
ATOM     24  O   UNL     1     -45.371  -6.773 -27.018  0.00  0.00    +0.000 OA
ENDBRANCH  18  22
ENDBRANCH  16  18
ENDBRANCH   1  15
TORSDOF 4
ENDMDL
