MODEL 1
REMARK VINA RESULT:      -6.9      0.000      0.000
REMARK  Name = ZINC000012772569 CSC027018696 MCULE-2308435649 MolPort-005-665-378
REMARK  4 active torsions:
REMARK  status: ('A' for Active; 'I' for Inactive)
REMARK    1  A    between atoms: C_2  and  O_23
REMARK    2  A    between atoms: C_3  and  N_28
REMARK    3  A    between atoms: C_4  and  C_5
REMARK    4  A    between atoms: C_20  and  N_31
REMARK                            x       y       z     vdW  Elec       q    Type
REMARK                         _______ _______ _______ _____ _____    ______ ____
ROOT
ATOM      1  C   UNL     1     -46.305  -5.723 -28.808  0.00  0.00    +0.000 A 
ATOM      2  C   UNL     1     -46.920  -6.966 -28.604  0.00  0.00    +0.000 A 
ATOM      3  C   UNL     1     -46.151  -8.123 -28.461  0.00  0.00    +0.000 A 
ATOM      4  C   UNL     1     -44.748  -8.049 -28.532  0.00  0.00    +0.000 A 
ATOM      5  C   UNL     1     -44.011  -9.232 -28.387  0.00  0.00    +0.000 A 
ATOM      6  C   UNL     1     -46.030 -10.458 -28.110  0.00  0.00    +0.000 A 
ATOM      7  C   UNL     1     -46.766 -11.749 -27.896  0.00  0.00    +0.000 C 
ATOM      8  C   UNL     1     -47.047 -12.450 -29.219  0.00  0.00    +0.000 C 
ATOM      9  C   UNL     1     -45.858 -13.284 -29.681  0.00  0.00    +0.000 C 
ATOM     10  C   UNL     1     -44.800 -12.400 -30.324  0.00  0.00    +0.000 C 
ATOM     11  C   UNL     1     -43.569 -12.250 -29.432  0.00  0.00    +0.000 C 
ATOM     12  C   UNL     1     -43.892 -11.660 -28.059  0.00  0.00    +0.000 C 
ATOM     13  C   UNL     1     -44.130  -6.811 -28.750  0.00  0.00    +0.000 A 
ATOM     14  C   UNL     1     -44.905  -5.657 -28.891  0.00  0.00    +0.000 A 
ATOM     15  O   UNL     1     -42.749  -9.198 -28.447  0.00  0.00    +0.000 OA
ATOM     16  N   UNL     1     -44.661 -10.419 -28.180  0.00  0.00    +0.000 N 
ATOM     17  N   UNL     1     -46.754  -9.318 -28.255  0.00  0.00    +0.000 NA
ENDROOT
BRANCH   1  18
ATOM     18  C   UNL     1     -47.129  -4.509 -28.976  0.00  0.00    +0.000 C 
ATOM     19  O   UNL     1     -47.756  -4.047 -27.985  0.00  0.00    +0.000 OA
ATOM     20  N   UNL     1     -47.287  -3.864 -30.249  0.00  0.00    +0.000 NA
BRANCH  20  22
ATOM     21  C   UNL     1     -46.135  -4.652 -32.265  0.00  0.00    +0.000 A 
ATOM     22  C   UNL     1     -46.264  -3.700 -31.241  0.00  0.00    +0.000 A 
ATOM     23  C   UNL     1     -45.428  -2.573 -31.235  0.00  0.00    +0.000 A 
ATOM     24  C   UNL     1     -44.448  -2.398 -32.218  0.00  0.00    +0.000 A 
ATOM     25  C   UNL     1     -44.315  -3.359 -33.229  0.00  0.00    +0.000 A 
ATOM     26  C   UNL     1     -45.154  -4.476 -33.254  0.00  0.00    +0.000 A 
BRANCH  24  29
ATOM     27  O   UNL     1     -42.224  -1.402 -32.205  0.00  0.00    +0.000 OA
ATOM     28  O   UNL     1     -44.074  -0.098 -32.148  0.00  0.00    +0.000 OA
ATOM     29  N   UNL     1     -43.591  -1.248 -32.186  0.00  0.00    +0.000 N 
ENDBRANCH  24  29
BRANCH  21  31
ATOM     30  C   UNL     1     -46.508  -7.098 -32.350  0.00  0.00    +0.000 C 
ATOM     31  O   UNL     1     -46.987  -5.762 -32.281  0.00  0.00    +0.000 OA
ENDBRANCH  21  31
ENDBRANCH  20  22
ENDBRANCH   1  18
TORSDOF 4
ENDMDL
MODEL 2
REMARK VINA RESULT:      -6.7      3.029      4.161
REMARK  Name = ZINC000012772569 CSC027018696 MCULE-2308435649 MolPort-005-665-378
REMARK  4 active torsions:
REMARK  status: ('A' for Active; 'I' for Inactive)
REMARK    1  A    between atoms: C_2  and  O_23
REMARK    2  A    between atoms: C_3  and  N_28
REMARK    3  A    between atoms: C_4  and  C_5
REMARK    4  A    between atoms: C_20  and  N_31
REMARK                            x       y       z     vdW  Elec       q    Type
REMARK                         _______ _______ _______ _____ _____    ______ ____
ROOT
ATOM      1  C   UNL     1     -43.518  -5.546 -32.106  0.00  0.00    +0.000 A 
ATOM      2  C   UNL     1     -44.606  -5.950 -31.319  0.00  0.00    +0.000 A 
ATOM      3  C   UNL     1     -44.437  -6.218 -29.959  0.00  0.00    +0.000 A 
ATOM      4  C   UNL     1     -43.165  -6.092 -29.370  0.00  0.00    +0.000 A 
ATOM      5  C   UNL     1     -43.034  -6.372 -28.003  0.00  0.00    +0.000 A 
ATOM      6  C   UNL     1     -45.359  -6.861 -27.878  0.00  0.00    +0.000 A 
ATOM      7  C   UNL     1     -46.573  -7.290 -27.107  0.00  0.00    +0.000 C 
ATOM      8  C   UNL     1     -46.709  -8.807 -27.089  0.00  0.00    +0.000 C 
ATOM      9  C   UNL     1     -45.870  -9.438 -25.986  0.00  0.00    +0.000 C 
ATOM     10  C   UNL     1     -44.411  -9.530 -26.406  0.00  0.00    +0.000 C 
ATOM     11  C   UNL     1     -43.540  -8.525 -25.656  0.00  0.00    +0.000 C 
ATOM     12  C   UNL     1     -43.988  -7.076 -25.855  0.00  0.00    +0.000 C 
ATOM     13  C   UNL     1     -42.073  -5.703 -30.156  0.00  0.00    +0.000 A 
ATOM     14  C   UNL     1     -42.249  -5.436 -31.515  0.00  0.00    +0.000 A 
ATOM     15  O   UNL     1     -41.904  -6.271 -27.445  0.00  0.00    +0.000 OA
ATOM     16  N   UNL     1     -44.130  -6.754 -27.277  0.00  0.00    +0.000 N 
ATOM     17  N   UNL     1     -45.495  -6.598 -29.204  0.00  0.00    +0.000 NA
ENDROOT
BRANCH   1  18
ATOM     18  C   UNL     1     -43.706  -5.284 -33.547  0.00  0.00    +0.000 C 
ATOM     19  O   UNL     1     -44.319  -6.129 -34.253  0.00  0.00    +0.000 OA
ATOM     20  N   UNL     1     -43.165  -4.119 -34.188  0.00  0.00    +0.000 NA
BRANCH  20  22
ATOM     21  C   UNL     1     -44.284  -2.052 -33.488  0.00  0.00    +0.000 A 
ATOM     22  C   UNL     1     -43.105  -2.801 -33.624  0.00  0.00    +0.000 A 
ATOM     23  C   UNL     1     -41.892  -2.274 -33.153  0.00  0.00    +0.000 A 
ATOM     24  C   UNL     1     -41.837  -0.999 -32.578  0.00  0.00    +0.000 A 
ATOM     25  C   UNL     1     -43.016  -0.251 -32.459  0.00  0.00    +0.000 A 
ATOM     26  C   UNL     1     -44.230  -0.775 -32.908  0.00  0.00    +0.000 A 
BRANCH  24  29
ATOM     27  O   UNL     1     -39.401  -0.952 -32.624  0.00  0.00    +0.000 OA
ATOM     28  O   UNL     1     -40.558   0.437 -31.260  0.00  0.00    +0.000 OA
ATOM     29  N   UNL     1     -40.586  -0.469 -32.118  0.00  0.00    +0.000 N 
ENDBRANCH  24  29
BRANCH  21  31
ATOM     30  C   UNL     1     -46.535  -2.990 -33.053  0.00  0.00    +0.000 C 
ATOM     31  O   UNL     1     -45.495  -2.593 -33.937  0.00  0.00    +0.000 OA
ENDBRANCH  21  31
ENDBRANCH  20  22
ENDBRANCH   1  18
TORSDOF 4
ENDMDL
MODEL 3
REMARK VINA RESULT:      -6.6     12.291     15.325
REMARK  Name = ZINC000012772569 CSC027018696 MCULE-2308435649 MolPort-005-665-378
REMARK  4 active torsions:
REMARK  status: ('A' for Active; 'I' for Inactive)
REMARK    1  A    between atoms: C_2  and  O_23
REMARK    2  A    between atoms: C_3  and  N_28
REMARK    3  A    between atoms: C_4  and  C_5
REMARK    4  A    between atoms: C_20  and  N_31
REMARK                            x       y       z     vdW  Elec       q    Type
REMARK                         _______ _______ _______ _____ _____    ______ ____
ROOT
ATOM      1  C   UNL     1     -45.286 -18.129 -19.115  0.00  0.00    +0.000 A 
ATOM      2  C   UNL     1     -44.252 -17.288 -18.680  0.00  0.00    +0.000 A 
ATOM      3  C   UNL     1     -44.528 -15.988 -18.249  0.00  0.00    +0.000 A 
ATOM      4  C   UNL     1     -45.852 -15.511 -18.258  0.00  0.00    +0.000 A 
ATOM      5  C   UNL     1     -46.089 -14.201 -17.821  0.00  0.00    +0.000 A 
ATOM      6  C   UNL     1     -43.766 -13.919 -17.394  0.00  0.00    +0.000 A 
ATOM      7  C   UNL     1     -42.603 -13.083 -16.947  0.00  0.00    +0.000 C 
ATOM      8  C   UNL     1     -42.034 -12.266 -18.100  0.00  0.00    +0.000 C 
ATOM      9  C   UNL     1     -42.801 -10.966 -18.306  0.00  0.00    +0.000 C 
ATOM     10  C   UNL     1     -44.094 -11.220 -19.066  0.00  0.00    +0.000 C 
ATOM     11  C   UNL     1     -45.319 -11.088 -18.163  0.00  0.00    +0.000 C 
ATOM     12  C   UNL     1     -45.289 -12.043 -16.969  0.00  0.00    +0.000 C 
ATOM     13  C   UNL     1     -46.886 -16.343 -18.705  0.00  0.00    +0.000 A 
ATOM     14  C   UNL     1     -46.602 -17.642 -19.134  0.00  0.00    +0.000 A 
ATOM     15  O   UNL     1     -47.267 -13.741 -17.818  0.00  0.00    +0.000 OA
ATOM     16  N   UNL     1     -45.045 -13.423 -17.398  0.00  0.00    +0.000 N 
ATOM     17  N   UNL     1     -43.524 -15.186 -17.822  0.00  0.00    +0.000 NA
ENDROOT
BRANCH   1  18
ATOM     18  C   UNL     1     -44.978 -19.494 -19.586  0.00  0.00    +0.000 C 
ATOM     19  O   UNL     1     -45.504 -20.481 -19.004  0.00  0.00    +0.000 OA
ATOM     20  N   UNL     1     -44.053 -19.742 -20.654  0.00  0.00    +0.000 NA
BRANCH  20  22
ATOM     21  C   UNL     1     -42.652 -18.409 -22.162  0.00  0.00    +0.000 A 
ATOM     22  C   UNL     1     -43.907 -18.949 -21.841  0.00  0.00    +0.000 A 
ATOM     23  C   UNL     1     -44.988 -18.756 -22.715  0.00  0.00    +0.000 A 
ATOM     24  C   UNL     1     -44.840 -18.006 -23.888  0.00  0.00    +0.000 A 
ATOM     25  C   UNL     1     -43.588 -17.457 -24.194  0.00  0.00    +0.000 A 
ATOM     26  C   UNL     1     -42.502 -17.659 -23.339  0.00  0.00    +0.000 A 
BRANCH  24  29
ATOM     27  O   UNL     1     -46.333 -16.532 -25.126  0.00  0.00    +0.000 OA
ATOM     28  O   UNL     1     -46.604 -18.778 -25.203  0.00  0.00    +0.000 OA
ATOM     29  N   UNL     1     -45.960 -17.805 -24.761  0.00  0.00    +0.000 N 
ENDBRANCH  24  29
BRANCH  21  31
ATOM     30  C   UNL     1     -40.597 -19.635 -21.525  0.00  0.00    +0.000 C 
ATOM     31  O   UNL     1     -41.572 -18.625 -21.300  0.00  0.00    +0.000 OA
ENDBRANCH  21  31
ENDBRANCH  20  22
ENDBRANCH   1  18
TORSDOF 4
ENDMDL
