MODEL 1
REMARK VINA RESULT:      -6.6      0.000      0.000
REMARK  Name = ZINC000036054391 ZINC36054391 PubChem-93152296
REMARK  8 active torsions:
REMARK  status: ('A' for Active; 'I' for Inactive)
REMARK    1  A    between atoms: C_2  and  C_4
REMARK    2  A    between atoms: C_4  and  C_5
REMARK    3  A    between atoms: C_7  and  C_18
REMARK    4  A    between atoms: C_8  and  C_10
REMARK    5  A    between atoms: C_11  and  C_12
REMARK    6  A    between atoms: C_11  and  N_31
REMARK    7  A    between atoms: C_22  and  O_29
REMARK    8  A    between atoms: C_23  and  O_28
REMARK                            x       y       z     vdW  Elec       q    Type
REMARK                         _______ _______ _______ _____ _____    ______ ____
ROOT
ATOM      1  C   UNL     1     -44.041 -18.276 -26.219  0.00  0.00    +0.000 C 
ATOM      2  C   UNL     1     -44.244 -15.760 -26.063  0.00  0.00    +0.000 C 
ATOM      3  C   UNL     1     -45.048 -14.828 -25.173  0.00  0.00    +0.000 C 
ATOM      4  C   UNL     1     -46.067 -15.680 -24.416  0.00  0.00    +0.000 C 
ATOM      5  C   UNL     1     -45.762 -17.130 -24.753  0.00  0.00    +0.000 C 
ATOM      6  O   UNL     1     -43.108 -18.178 -27.061  0.00  0.00    +0.000 OA
ATOM      7  N   UNL     1     -44.684 -17.097 -25.721  0.00  0.00    +0.000 N 
ENDROOT
BRANCH   3   8
ATOM      8  C   UNL     1     -45.701 -13.722 -25.952  0.00  0.00    +0.000 A 
ATOM      9  C   UNL     1     -46.054 -13.996 -27.275  0.00  0.00    +0.000 A 
ATOM     10  C   UNL     1     -46.660 -13.023 -28.064  0.00  0.00    +0.000 A 
ATOM     11  C   UNL     1     -46.919 -11.762 -27.532  0.00  0.00    +0.000 A 
ATOM     12  C   UNL     1     -46.577 -11.454 -26.206  0.00  0.00    +0.000 A 
ATOM     13  C   UNL     1     -45.958 -12.444 -25.398  0.00  0.00    +0.000 A 
BRANCH  13  15
ATOM     14  C   UNL     1     -44.376 -11.600 -23.641  0.00  0.00    +0.000 C 
ATOM     15  O   UNL     1     -45.584 -12.217 -24.061  0.00  0.00    +0.000 OA
ENDBRANCH  13  15
BRANCH  12  17
ATOM     16  C   UNL     1     -46.006  -9.057 -25.925  0.00  0.00    +0.000 C 
ATOM     17  O   UNL     1     -46.847 -10.180 -25.693  0.00  0.00    +0.000 OA
ENDBRANCH  12  17
ENDBRANCH   3   8
BRANCH   4  18
ATOM     18  C   UNL     1     -45.945 -15.453 -22.946  0.00  0.00    +0.000 C 
ATOM     19  O   UNL     1     -46.716 -14.635 -22.380  0.00  0.00    +0.000 OA
ATOM     20  N   UNL     1     -44.965 -16.168 -22.189  0.00  0.00    +0.000 NA
BRANCH  20  21
ATOM     21  C   UNL     1     -44.822 -16.005 -20.753  0.00  0.00    +0.000 C 
BRANCH  21  22
ATOM     22  C   UNL     1     -45.051 -17.311 -20.079  0.00  0.00    +0.000 A 
ATOM     23  C   UNL     1     -46.278 -17.968 -20.223  0.00  0.00    +0.000 A 
ATOM     24  C   UNL     1     -46.482 -19.210 -19.616  0.00  0.00    +0.000 A 
ATOM     25  C   UNL     1     -45.457 -19.800 -18.869  0.00  0.00    +0.000 A 
ATOM     26  C   UNL     1     -44.227 -19.150 -18.733  0.00  0.00    +0.000 A 
ATOM     27  C   UNL     1     -44.023 -17.907 -19.340  0.00  0.00    +0.000 A 
ATOM     28  F   UNL     1     -45.655 -21.004 -18.281  0.00  0.00    +0.000 F 
ENDBRANCH  21  22
ENDBRANCH  20  21
ENDBRANCH   4  18
BRANCH   1  29
ATOM     29  C   UNL     1     -44.475 -19.636 -25.751  0.00  0.00    +0.000 C 
BRANCH  29  31
ATOM     30  C   UNL     1     -44.129 -19.639 -23.248  0.00  0.00    +0.000 C 
ATOM     31  C   UNL     1     -43.643 -20.173 -24.584  0.00  0.00    +0.000 C 
ATOM     32  C   UNL     1     -42.161 -19.895 -24.763  0.00  0.00    +0.000 C 
ENDBRANCH  29  31
ENDBRANCH   1  29
TORSDOF 8
ENDMDL
MODEL 2
REMARK VINA RESULT:      -6.2     10.577     14.012
REMARK  Name = ZINC000036054391 ZINC36054391 PubChem-93152296
REMARK  8 active torsions:
REMARK  status: ('A' for Active; 'I' for Inactive)
REMARK    1  A    between atoms: C_2  and  C_4
REMARK    2  A    between atoms: C_4  and  C_5
REMARK    3  A    between atoms: C_7  and  C_18
REMARK    4  A    between atoms: C_8  and  C_10
REMARK    5  A    between atoms: C_11  and  C_12
REMARK    6  A    between atoms: C_11  and  N_31
REMARK    7  A    between atoms: C_22  and  O_29
REMARK    8  A    between atoms: C_23  and  O_28
REMARK                            x       y       z     vdW  Elec       q    Type
REMARK                         _______ _______ _______ _____ _____    ______ ____
ROOT
ATOM      1  C   UNL     1     -45.685  -3.028 -32.991  0.00  0.00    +0.000 C 
ATOM      2  C   UNL     1     -46.490  -5.380 -33.457  0.00  0.00    +0.000 C 
ATOM      3  C   UNL     1     -46.082  -6.749 -32.939  0.00  0.00    +0.000 C 
ATOM      4  C   UNL     1     -44.775  -6.577 -32.166  0.00  0.00    +0.000 C 
ATOM      5  C   UNL     1     -44.494  -5.084 -32.106  0.00  0.00    +0.000 C 
ATOM      6  O   UNL     1     -46.617  -2.540 -33.683  0.00  0.00    +0.000 OA
ATOM      7  N   UNL     1     -45.540  -4.449 -32.883  0.00  0.00    +0.000 N 
ENDROOT
BRANCH   3   8
ATOM      8  C   UNL     1     -45.959  -7.760 -34.044  0.00  0.00    +0.000 A 
ATOM      9  C   UNL     1     -45.571  -7.288 -35.299  0.00  0.00    +0.000 A 
ATOM     10  C   UNL     1     -45.437  -8.162 -36.374  0.00  0.00    +0.000 A 
ATOM     11  C   UNL     1     -45.692  -9.520 -36.200  0.00  0.00    +0.000 A 
ATOM     12  C   UNL     1     -46.084 -10.026 -34.951  0.00  0.00    +0.000 A 
ATOM     13  C   UNL     1     -46.222  -9.138 -33.852  0.00  0.00    +0.000 A 
BRANCH  13  15
ATOM     14  C   UNL     1     -45.889 -10.478 -31.755  0.00  0.00    +0.000 C 
ATOM     15  O   UNL     1     -46.610  -9.563 -32.568  0.00  0.00    +0.000 OA
ENDBRANCH  13  15
BRANCH  12  17
ATOM     16  C   UNL     1     -45.402 -12.401 -35.172  0.00  0.00    +0.000 C 
ATOM     17  O   UNL     1     -46.335 -11.395 -34.799  0.00  0.00    +0.000 OA
ENDBRANCH  12  17
ENDBRANCH   3   8
BRANCH   4  18
ATOM     18  C   UNL     1     -44.908  -7.134 -30.788  0.00  0.00    +0.000 C 
ATOM     19  O   UNL     1     -43.957  -7.794 -30.293  0.00  0.00    +0.000 OA
ATOM     20  N   UNL     1     -46.103  -6.909 -30.037  0.00  0.00    +0.000 NA
BRANCH  20  21
ATOM     21  C   UNL     1     -46.273  -7.406 -28.683  0.00  0.00    +0.000 C 
BRANCH  21  22
ATOM     22  C   UNL     1     -46.550  -6.267 -27.766  0.00  0.00    +0.000 A 
ATOM     23  C   UNL     1     -46.938  -5.027 -28.287  0.00  0.00    +0.000 A 
ATOM     24  C   UNL     1     -47.229  -3.967 -27.425  0.00  0.00    +0.000 A 
ATOM     25  C   UNL     1     -47.139  -4.146 -26.041  0.00  0.00    +0.000 A 
ATOM     26  C   UNL     1     -46.761  -5.386 -25.519  0.00  0.00    +0.000 A 
ATOM     27  C   UNL     1     -46.470  -6.448 -26.381  0.00  0.00    +0.000 A 
ATOM     28  F   UNL     1     -47.421  -3.117 -25.206  0.00  0.00    +0.000 F 
ENDBRANCH  21  22
ENDBRANCH  20  21
ENDBRANCH   4  18
BRANCH   1  29
ATOM     29  C   UNL     1     -44.725  -2.110 -32.289  0.00  0.00    +0.000 C 
BRANCH  29  31
ATOM     30  C   UNL     1     -42.899  -2.475 -33.998  0.00  0.00    +0.000 C 
ATOM     31  C   UNL     1     -43.715  -1.449 -33.232  0.00  0.00    +0.000 C 
ATOM     32  C   UNL     1     -42.803  -0.479 -32.502  0.00  0.00    +0.000 C 
ENDBRANCH  29  31
ENDBRANCH   1  29
TORSDOF 8
ENDMDL
MODEL 3
REMARK VINA RESULT:      -6.2      9.521     15.039
REMARK  Name = ZINC000036054391 ZINC36054391 PubChem-93152296
REMARK  8 active torsions:
REMARK  status: ('A' for Active; 'I' for Inactive)
REMARK    1  A    between atoms: C_2  and  C_4
REMARK    2  A    between atoms: C_4  and  C_5
REMARK    3  A    between atoms: C_7  and  C_18
REMARK    4  A    between atoms: C_8  and  C_10
REMARK    5  A    between atoms: C_11  and  C_12
REMARK    6  A    between atoms: C_11  and  N_31
REMARK    7  A    between atoms: C_22  and  O_29
REMARK    8  A    between atoms: C_23  and  O_28
REMARK                            x       y       z     vdW  Elec       q    Type
REMARK                         _______ _______ _______ _____ _____    ______ ____
ROOT
ATOM      1  C   UNL     1     -42.507  -3.871 -32.685  0.00  0.00    +0.000 C 
ATOM      2  C   UNL     1     -43.828  -5.972 -32.197  0.00  0.00    +0.000 C 
ATOM      3  C   UNL     1     -45.226  -6.440 -32.563  0.00  0.00    +0.000 C 
ATOM      4  C   UNL     1     -45.974  -5.240 -33.145  0.00  0.00    +0.000 C 
ATOM      5  C   UNL     1     -44.966  -4.107 -33.256  0.00  0.00    +0.000 C 
ATOM      6  O   UNL     1     -41.470  -4.367 -32.169  0.00  0.00    +0.000 OA
ATOM      7  N   UNL     1     -43.734  -4.611 -32.682  0.00  0.00    +0.000 N 
ENDROOT
BRANCH   3   8
ATOM      8  C   UNL     1     -45.948  -7.043 -31.392  0.00  0.00    +0.000 A 
ATOM      9  C   UNL     1     -46.414  -6.168 -30.410  0.00  0.00    +0.000 A 
ATOM     10  C   UNL     1     -47.090  -6.650 -29.293  0.00  0.00    +0.000 A 
ATOM     11  C   UNL     1     -47.305  -8.018 -29.150  0.00  0.00    +0.000 A 
ATOM     12  C   UNL     1     -46.849  -8.925 -30.119  0.00  0.00    +0.000 A 
ATOM     13  C   UNL     1     -46.159  -8.437 -31.260  0.00  0.00    +0.000 A 
BRANCH  13  15
ATOM     14  C   UNL     1     -44.451 -10.005 -32.225  0.00  0.00    +0.000 C 
ATOM     15  O   UNL     1     -45.670  -9.278 -32.276  0.00  0.00    +0.000 OA
ENDBRANCH  13  15
BRANCH  12  17
ATOM     16  C   UNL     1     -46.305 -11.111 -29.081  0.00  0.00    +0.000 C 
ATOM     17  O   UNL     1     -47.076 -10.296 -29.955  0.00  0.00    +0.000 OA
ENDBRANCH  12  17
ENDBRANCH   3   8
BRANCH   4  18
ATOM     18  C   UNL     1     -46.526  -5.574 -34.491  0.00  0.00    +0.000 C 
ATOM     19  O   UNL     1     -47.492  -4.907 -34.946  0.00  0.00    +0.000 OA
ATOM     20  N   UNL     1     -45.954  -6.636 -35.257  0.00  0.00    +0.000 NA
BRANCH  20  21
ATOM     21  C   UNL     1     -46.436  -6.984 -36.582  0.00  0.00    +0.000 C 
BRANCH  21  22
ATOM     22  C   UNL     1     -46.760  -8.436 -36.628  0.00  0.00    +0.000 A 
ATOM     23  C   UNL     1     -47.480  -8.959 -37.708  0.00  0.00    +0.000 A 
ATOM     24  C   UNL     1     -47.756 -10.328 -37.767  0.00  0.00    +0.000 A 
ATOM     25  C   UNL     1     -47.308 -11.176 -36.750  0.00  0.00    +0.000 A 
ATOM     26  C   UNL     1     -46.581 -10.656 -35.675  0.00  0.00    +0.000 A 
ATOM     27  C   UNL     1     -46.303  -9.287 -35.615  0.00  0.00    +0.000 A 
ATOM     28  F   UNL     1     -47.576 -12.503 -36.807  0.00  0.00    +0.000 F 
ENDBRANCH  21  22
ENDBRANCH  20  21
ENDBRANCH   4  18
BRANCH   1  29
ATOM     29  C   UNL     1     -42.447  -2.499 -33.294  0.00  0.00    +0.000 C 
BRANCH  29  31
ATOM     30  C   UNL     1     -43.972  -0.646 -32.503  0.00  0.00    +0.000 C 
ATOM     31  C   UNL     1     -42.657  -1.372 -32.278  0.00  0.00    +0.000 C 
ATOM     32  C   UNL     1     -41.499  -0.391 -32.267  0.00  0.00    +0.000 C 
ENDBRANCH  29  31
ENDBRANCH   1  29
TORSDOF 8
ENDMDL
