MODEL 1
REMARK VINA RESULT:      -6.1      0.000      0.000
REMARK  Name = ZINC000019936622 CSC046228778 PubChem-28463439
REMARK  7 active torsions:
REMARK  status: ('A' for Active; 'I' for Inactive)
REMARK    1  A    between atoms: C_5  and  S_21
REMARK    2  A    between atoms: C_8  and  N_20
REMARK    3  A    between atoms: C_10  and  O_27
REMARK    4  A    between atoms: C_11  and  O_26
REMARK    5  A    between atoms: C_13  and  C_14
REMARK    6  A    between atoms: C_14  and  O_25
REMARK    7  A    between atoms: N_20  and  S_21
REMARK                            x       y       z     vdW  Elec       q    Type
REMARK                         _______ _______ _______ _____ _____    ______ ____
ROOT
ATOM      1  N   UNL     1     -44.190 -19.537 -20.971  0.00  0.00    +0.000 NA
ENDROOT
BRANCH   1   2
ATOM      2  C   UNL     1     -44.194 -19.164 -22.356  0.00  0.00    +0.000 A 
ATOM      3  C   UNL     1     -45.051 -18.150 -22.800  0.00  0.00    +0.000 A 
ATOM      4  C   UNL     1     -45.081 -17.744 -24.141  0.00  0.00    +0.000 A 
ATOM      5  C   UNL     1     -44.228 -18.382 -25.070  0.00  0.00    +0.000 A 
ATOM      6  C   UNL     1     -43.376 -19.395 -24.624  0.00  0.00    +0.000 A 
ATOM      7  C   UNL     1     -43.340 -19.801 -23.282  0.00  0.00    +0.000 A 
BRANCH   7   8
ATOM      8  C   UNL     1     -42.400 -20.884 -22.900  0.00  0.00    +0.000 C 
ATOM      9  O   UNL     1     -42.662 -22.078 -23.219  0.00  0.00    +0.000 OA
BRANCH   8  11
ATOM     10  C   UNL     1     -40.173 -19.839 -22.763  0.00  0.00    +0.000 C 
ATOM     11  O   UNL     1     -41.230 -20.598 -22.193  0.00  0.00    +0.000 OA
ENDBRANCH   8  11
ENDBRANCH   7   8
BRANCH   5  13
ATOM     12  C   UNL     1     -43.319 -17.081 -27.005  0.00  0.00    +0.000 C 
ATOM     13  O   UNL     1     -44.177 -18.059 -26.434  0.00  0.00    +0.000 OA
ENDBRANCH   5  13
BRANCH   4  15
ATOM     14  C   UNL     1     -46.038 -15.474 -23.866  0.00  0.00    +0.000 C 
ATOM     15  O   UNL     1     -45.944 -16.720 -24.546  0.00  0.00    +0.000 OA
ENDBRANCH   4  15
ENDBRANCH   1   2
BRANCH   1  16
ATOM     16  S   UNL     1     -45.469 -19.162 -19.863  0.00  0.00    +0.000 S 
ATOM     17  O   UNL     1     -46.782 -19.201 -20.595  0.00  0.00    +0.000 OA
ATOM     18  O   UNL     1     -45.490 -20.184 -18.762  0.00  0.00    +0.000 OA
BRANCH  16  23
ATOM     19  C   UNL     1     -43.749 -13.022 -17.033  0.00  0.00    +0.000 C 
ATOM     20  C   UNL     1     -44.784 -15.092 -18.018  0.00  0.00    +0.000 A 
ATOM     21  C   UNL     1     -46.057 -15.528 -18.264  0.00  0.00    +0.000 A 
ATOM     22  C   UNL     1     -46.316 -16.768 -18.838  0.00  0.00    +0.000 A 
ATOM     23  C   UNL     1     -45.208 -17.574 -19.165  0.00  0.00    +0.000 A 
ATOM     24  C   UNL     1     -43.891 -17.119 -18.911  0.00  0.00    +0.000 A 
ATOM     25  C   UNL     1     -43.664 -15.859 -18.329  0.00  0.00    +0.000 A 
ATOM     26  C   UNL     1     -46.175 -13.621 -17.395  0.00  0.00    +0.000 A 
ATOM     27  N   UNL     1     -44.847 -13.872 -17.463  0.00  0.00    +0.000 N 
ATOM     28  O   UNL     1     -46.912 -14.609 -17.874  0.00  0.00    +0.000 OA
ATOM     29  O   UNL     1     -46.662 -12.558 -16.925  0.00  0.00    +0.000 OA
ENDBRANCH  16  23
ENDBRANCH   1  16
TORSDOF 7
ENDMDL
MODEL 2
REMARK VINA RESULT:      -5.9      2.343      4.407
REMARK  Name = ZINC000019936622 CSC046228778 PubChem-28463439
REMARK  7 active torsions:
REMARK  status: ('A' for Active; 'I' for Inactive)
REMARK    1  A    between atoms: C_5  and  S_21
REMARK    2  A    between atoms: C_8  and  N_20
REMARK    3  A    between atoms: C_10  and  O_27
REMARK    4  A    between atoms: C_11  and  O_26
REMARK    5  A    between atoms: C_13  and  C_14
REMARK    6  A    between atoms: C_14  and  O_25
REMARK    7  A    between atoms: N_20  and  S_21
REMARK                            x       y       z     vdW  Elec       q    Type
REMARK                         _______ _______ _______ _____ _____    ______ ____
ROOT
ATOM      1  N   UNL     1     -45.880 -17.337 -23.311  0.00  0.00    +0.000 NA
ENDROOT
BRANCH   1   2
ATOM      2  C   UNL     1     -44.878 -18.283 -22.917  0.00  0.00    +0.000 A 
ATOM      3  C   UNL     1     -44.373 -18.259 -21.612  0.00  0.00    +0.000 A 
ATOM      4  C   UNL     1     -43.401 -19.171 -21.180  0.00  0.00    +0.000 A 
ATOM      5  C   UNL     1     -42.914 -20.136 -22.090  0.00  0.00    +0.000 A 
ATOM      6  C   UNL     1     -43.418 -20.157 -23.392  0.00  0.00    +0.000 A 
ATOM      7  C   UNL     1     -44.393 -19.248 -23.827  0.00  0.00    +0.000 A 
BRANCH   7   8
ATOM      8  C   UNL     1     -44.871 -19.347 -25.228  0.00  0.00    +0.000 C 
ATOM      9  O   UNL     1     -45.622 -20.306 -25.564  0.00  0.00    +0.000 OA
BRANCH   8  11
ATOM     10  C   UNL     1     -43.152 -18.209 -26.576  0.00  0.00    +0.000 C 
ATOM     11  O   UNL     1     -44.503 -18.392 -26.179  0.00  0.00    +0.000 OA
ENDBRANCH   8  11
ENDBRANCH   7   8
BRANCH   5  13
ATOM     12  C   UNL     1     -41.546 -22.167 -22.611  0.00  0.00    +0.000 C 
ATOM     13  O   UNL     1     -41.941 -21.094 -21.766  0.00  0.00    +0.000 OA
ENDBRANCH   5  13
BRANCH   4  15
ATOM     14  C   UNL     1     -43.547 -19.823 -18.793  0.00  0.00    +0.000 C 
ATOM     15  O   UNL     1     -42.928 -19.122 -19.864  0.00  0.00    +0.000 OA
ENDBRANCH   4  15
ENDBRANCH   1   2
BRANCH   1  16
ATOM     16  S   UNL     1     -45.536 -15.713 -23.814  0.00  0.00    +0.000 S 
ATOM     17  O   UNL     1     -44.116 -15.641 -24.304  0.00  0.00    +0.000 OA
ATOM     18  O   UNL     1     -46.461 -15.332 -24.934  0.00  0.00    +0.000 OA
BRANCH  16  23
ATOM     19  C   UNL     1     -46.254 -10.812 -18.902  0.00  0.00    +0.000 C 
ATOM     20  C   UNL     1     -46.098 -12.862 -20.351  0.00  0.00    +0.000 A 
ATOM     21  C   UNL     1     -46.235 -14.209 -20.159  0.00  0.00    +0.000 A 
ATOM     22  C   UNL     1     -46.081 -15.123 -21.196  0.00  0.00    +0.000 A 
ATOM     23  C   UNL     1     -45.774 -14.610 -22.472  0.00  0.00    +0.000 A 
ATOM     24  C   UNL     1     -45.633 -13.214 -22.668  0.00  0.00    +0.000 A 
ATOM     25  C   UNL     1     -45.796 -12.316 -21.597  0.00  0.00    +0.000 A 
ATOM     26  C   UNL     1     -46.553 -13.251 -18.319  0.00  0.00    +0.000 A 
ATOM     27  N   UNL     1     -46.300 -12.238 -19.181  0.00  0.00    +0.000 N 
ATOM     28  O   UNL     1     -46.517 -14.440 -18.897  0.00  0.00    +0.000 OA
ATOM     29  O   UNL     1     -46.797 -13.081 -17.095  0.00  0.00    +0.000 OA
ENDBRANCH  16  23
ENDBRANCH   1  16
TORSDOF 7
ENDMDL
MODEL 3
REMARK VINA RESULT:      -5.9      3.290      6.265
REMARK  Name = ZINC000019936622 CSC046228778 PubChem-28463439
REMARK  7 active torsions:
REMARK  status: ('A' for Active; 'I' for Inactive)
REMARK    1  A    between atoms: C_5  and  S_21
REMARK    2  A    between atoms: C_8  and  N_20
REMARK    3  A    between atoms: C_10  and  O_27
REMARK    4  A    between atoms: C_11  and  O_26
REMARK    5  A    between atoms: C_13  and  C_14
REMARK    6  A    between atoms: C_14  and  O_25
REMARK    7  A    between atoms: N_20  and  S_21
REMARK                            x       y       z     vdW  Elec       q    Type
REMARK                         _______ _______ _______ _____ _____    ______ ____
ROOT
ATOM      1  N   UNL     1     -43.450 -18.988 -24.553  0.00  0.00    +0.000 NA
ENDROOT
BRANCH   1   2
ATOM      2  C   UNL     1     -43.614 -18.988 -23.129  0.00  0.00    +0.000 A 
ATOM      3  C   UNL     1     -44.436 -18.030 -22.523  0.00  0.00    +0.000 A 
ATOM      4  C   UNL     1     -44.634 -17.998 -21.136  0.00  0.00    +0.000 A 
ATOM      5  C   UNL     1     -43.980 -18.956 -20.328  0.00  0.00    +0.000 A 
ATOM      6  C   UNL     1     -43.159 -19.909 -20.935  0.00  0.00    +0.000 A 
ATOM      7  C   UNL     1     -42.961 -19.946 -22.323  0.00  0.00    +0.000 A 
BRANCH   7   8
ATOM      8  C   UNL     1     -42.073 -20.997 -22.879  0.00  0.00    +0.000 C 
ATOM      9  O   UNL     1     -42.531 -22.158 -23.079  0.00  0.00    +0.000 OA
BRANCH   8  11
ATOM     10  C   UNL     1     -40.213 -20.899 -24.490  0.00  0.00    +0.000 C 
ATOM     11  O   UNL     1     -40.739 -20.718 -23.184  0.00  0.00    +0.000 OA
ENDBRANCH   8  11
ENDBRANCH   7   8
BRANCH   5  13
ATOM     12  C   UNL     1     -43.168 -19.635 -18.060  0.00  0.00    +0.000 C 
ATOM     13  O   UNL     1     -44.104 -19.016 -18.932  0.00  0.00    +0.000 OA
ENDBRANCH   5  13
BRANCH   4  15
ATOM     14  C   UNL     1     -45.781 -15.802 -21.212  0.00  0.00    +0.000 C 
ATOM     15  O   UNL     1     -45.471 -17.032 -20.568  0.00  0.00    +0.000 OA
ENDBRANCH   4  15
ENDBRANCH   1   2
BRANCH   1  16
ATOM     16  S   UNL     1     -44.740 -18.709 -25.677  0.00  0.00    +0.000 S 
ATOM     17  O   UNL     1     -44.502 -19.531 -26.913  0.00  0.00    +0.000 OA
ATOM     18  O   UNL     1     -46.042 -19.126 -25.054  0.00  0.00    +0.000 OA
BRANCH  16  23
ATOM     19  C   UNL     1     -44.490 -12.038 -27.701  0.00  0.00    +0.000 C 
ATOM     20  C   UNL     1     -44.899 -14.308 -26.698  0.00  0.00    +0.000 A 
ATOM     21  C   UNL     1     -45.715 -14.816 -25.725  0.00  0.00    +0.000 A 
ATOM     22  C   UNL     1     -45.708 -16.164 -25.384  0.00  0.00    +0.000 A 
ATOM     23  C   UNL     1     -44.820 -17.005 -26.083  0.00  0.00    +0.000 A 
ATOM     24  C   UNL     1     -43.976 -16.476 -27.091  0.00  0.00    +0.000 A 
ATOM     25  C   UNL     1     -44.009 -15.107 -27.412  0.00  0.00    +0.000 A 
ATOM     26  C   UNL     1     -46.082 -12.755 -25.876  0.00  0.00    +0.000 A 
ATOM     27  N   UNL     1     -45.125 -12.990 -26.804  0.00  0.00    +0.000 N 
ATOM     28  O   UNL     1     -46.444 -13.845 -25.221  0.00  0.00    +0.000 OA
ATOM     29  O   UNL     1     -46.576 -11.617 -25.656  0.00  0.00    +0.000 OA
ENDBRANCH  16  23
ENDBRANCH   1  16
TORSDOF 7
ENDMDL
