MODEL 1
REMARK VINA RESULT:      -6.5      0.000      0.000
REMARK  Name = ZINC000015625802 ZINC15625802 CSC026339303 MCULE-7875438388 MolPort-009-499-490 PubChem-26717303
REMARK  6 active torsions:
REMARK  status: ('A' for Active; 'I' for Inactive)
REMARK    1  A    between atoms: C_2  and  O_22
REMARK    2  A    between atoms: C_3  and  O_22
REMARK    3  A    between atoms: C_6  and  O_23
REMARK    4  A    between atoms: C_7  and  O_23
REMARK    5  A    between atoms: C_9  and  N_25
REMARK    6  A    between atoms: C_10  and  C_11
REMARK                            x       y       z     vdW  Elec       q    Type
REMARK                         _______ _______ _______ _____ _____    ______ ____
ROOT
ATOM      1  C   UNL     1     -46.751  -6.646 -32.468  0.00  0.00    +0.000 C 
ATOM      2  O   UNL     1     -46.683  -7.526 -33.367  0.00  0.00    +0.000 OA
ATOM      3  N   UNL     1     -47.350  -6.992 -31.212  0.00  0.00    +0.000 NA
ENDROOT
BRANCH   1   4
ATOM      4  C   UNL     1     -46.269  -5.279 -32.758  0.00  0.00    +0.000 A 
ATOM      5  C   UNL     1     -47.151  -4.297 -33.272  0.00  0.00    +0.000 A 
ATOM      6  C   UNL     1     -46.699  -3.001 -33.573  0.00  0.00    +0.000 A 
ATOM      7  C   UNL     1     -45.354  -2.718 -33.354  0.00  0.00    +0.000 A 
ATOM      8  C   UNL     1     -43.447  -1.770 -33.223  0.00  0.00    +0.000 A 
ATOM      9  C   UNL     1     -42.385  -0.730 -33.309  0.00  0.00    +0.000 C 
ATOM     10  C   UNL     1     -43.258  -3.073 -32.778  0.00  0.00    +0.000 A 
ATOM     11  C   UNL     1     -41.990  -3.696 -32.304  0.00  0.00    +0.000 C 
ATOM     12  C   UNL     1     -44.492  -3.667 -32.868  0.00  0.00    +0.000 A 
ATOM     13  C   UNL     1     -44.909  -4.960 -32.562  0.00  0.00    +0.000 A 
ATOM     14  N   UNL     1     -44.733  -1.543 -33.580  0.00  0.00    +0.000 NA
ENDBRANCH   1   4
BRANCH   3  19
ATOM     15  C   UNL     1     -46.983  -4.844 -28.161  0.00  0.00    +0.000 A 
ATOM     16  C   UNL     1     -46.039  -5.585 -27.435  0.00  0.00    +0.000 A 
ATOM     17  C   UNL     1     -45.536  -6.780 -27.953  0.00  0.00    +0.000 A 
ATOM     18  C   UNL     1     -45.973  -7.254 -29.200  0.00  0.00    +0.000 A 
ATOM     19  C   UNL     1     -46.928  -6.524 -29.923  0.00  0.00    +0.000 A 
ATOM     20  C   UNL     1     -47.415  -5.314 -29.403  0.00  0.00    +0.000 A 
BRANCH  15  21
ATOM     21  O   UNL     1     -47.503  -3.641 -27.674  0.00  0.00    +0.000 OA
BRANCH  21  23
ATOM     22  C   UNL     1     -47.383  -1.976 -25.953  0.00  0.00    +0.000 C 
ATOM     23  C   UNL     1     -47.737  -3.409 -26.292  0.00  0.00    +0.000 C 
ENDBRANCH  21  23
ENDBRANCH  15  21
BRANCH  18  24
ATOM     24  O   UNL     1     -45.473  -8.447 -29.736  0.00  0.00    +0.000 OA
BRANCH  24  25
ATOM     25  C   UNL     1     -45.734  -9.719 -29.159  0.00  0.00    +0.000 C 
ATOM     26  C   UNL     1     -46.964 -10.322 -29.805  0.00  0.00    +0.000 C 
ENDBRANCH  24  25
ENDBRANCH  18  24
ENDBRANCH   3  19
TORSDOF 6
ENDMDL
MODEL 2
REMARK VINA RESULT:      -6.2      1.503      2.232
REMARK  Name = ZINC000015625802 ZINC15625802 CSC026339303 MCULE-7875438388 MolPort-009-499-490 PubChem-26717303
REMARK  6 active torsions:
REMARK  status: ('A' for Active; 'I' for Inactive)
REMARK    1  A    between atoms: C_2  and  O_22
REMARK    2  A    between atoms: C_3  and  O_22
REMARK    3  A    between atoms: C_6  and  O_23
REMARK    4  A    between atoms: C_7  and  O_23
REMARK    5  A    between atoms: C_9  and  N_25
REMARK    6  A    between atoms: C_10  and  C_11
REMARK                            x       y       z     vdW  Elec       q    Type
REMARK                         _______ _______ _______ _____ _____    ______ ____
ROOT
ATOM      1  C   UNL     1     -46.597  -4.926 -33.408  0.00  0.00    +0.000 C 
ATOM      2  O   UNL     1     -46.951  -5.399 -34.520  0.00  0.00    +0.000 OA
ATOM      3  N   UNL     1     -47.541  -4.928 -32.329  0.00  0.00    +0.000 NA
ENDROOT
BRANCH   1   4
ATOM      4  C   UNL     1     -45.250  -4.335 -33.270  0.00  0.00    +0.000 A 
ATOM      5  C   UNL     1     -44.092  -5.118 -33.499  0.00  0.00    +0.000 A 
ATOM      6  C   UNL     1     -42.805  -4.574 -33.347  0.00  0.00    +0.000 A 
ATOM      7  C   UNL     1     -42.708  -3.241 -32.959  0.00  0.00    +0.000 A 
ATOM      8  C   UNL     1     -41.997  -1.311 -32.391  0.00  0.00    +0.000 A 
ATOM      9  C   UNL     1     -41.066  -0.195 -32.066  0.00  0.00    +0.000 C 
ATOM     10  C   UNL     1     -43.384  -1.234 -32.356  0.00  0.00    +0.000 A 
ATOM     11  C   UNL     1     -44.219  -0.052 -31.997  0.00  0.00    +0.000 C 
ATOM     12  C   UNL     1     -43.824  -2.480 -32.723  0.00  0.00    +0.000 A 
ATOM     13  C   UNL     1     -45.112  -2.992 -32.863  0.00  0.00    +0.000 A 
ATOM     14  N   UNL     1     -41.573  -2.543 -32.760  0.00  0.00    +0.000 NA
ENDBRANCH   1   4
BRANCH   3  19
ATOM     15  C   UNL     1     -47.122  -4.352 -28.648  0.00  0.00    +0.000 A 
ATOM     16  C   UNL     1     -46.566  -5.578 -28.256  0.00  0.00    +0.000 A 
ATOM     17  C   UNL     1     -46.338  -6.580 -29.202  0.00  0.00    +0.000 A 
ATOM     18  C   UNL     1     -46.667  -6.372 -30.551  0.00  0.00    +0.000 A 
ATOM     19  C   UNL     1     -47.237  -5.152 -30.945  0.00  0.00    +0.000 A 
ATOM     20  C   UNL     1     -47.446  -4.144 -29.991  0.00  0.00    +0.000 A 
BRANCH  15  21
ATOM     21  O   UNL     1     -47.358  -3.327 -27.728  0.00  0.00    +0.000 OA
BRANCH  21  23
ATOM     22  C   UNL     1     -47.356  -2.208 -25.607  0.00  0.00    +0.000 C 
ATOM     23  C   UNL     1     -47.369  -3.542 -26.324  0.00  0.00    +0.000 C 
ENDBRANCH  21  23
ENDBRANCH  15  21
BRANCH  18  24
ATOM     24  O   UNL     1     -46.437  -7.364 -31.512  0.00  0.00    +0.000 OA
BRANCH  24  25
ATOM     25  C   UNL     1     -47.322  -8.457 -31.716  0.00  0.00    +0.000 C 
ATOM     26  C   UNL     1     -46.615  -9.750 -31.363  0.00  0.00    +0.000 C 
ENDBRANCH  24  25
ENDBRANCH  18  24
ENDBRANCH   3  19
TORSDOF 6
ENDMDL
MODEL 3
REMARK VINA RESULT:      -5.9     11.830     15.760
REMARK  Name = ZINC000015625802 ZINC15625802 CSC026339303 MCULE-7875438388 MolPort-009-499-490 PubChem-26717303
REMARK  6 active torsions:
REMARK  status: ('A' for Active; 'I' for Inactive)
REMARK    1  A    between atoms: C_2  and  O_22
REMARK    2  A    between atoms: C_3  and  O_22
REMARK    3  A    between atoms: C_6  and  O_23
REMARK    4  A    between atoms: C_7  and  O_23
REMARK    5  A    between atoms: C_9  and  N_25
REMARK    6  A    between atoms: C_10  and  C_11
REMARK                            x       y       z     vdW  Elec       q    Type
REMARK                         _______ _______ _______ _____ _____    ______ ____
ROOT
ATOM      1  C   UNL     1     -45.060 -19.335 -25.220  0.00  0.00    +0.000 C 
ATOM      2  O   UNL     1     -45.866 -20.255 -25.522  0.00  0.00    +0.000 OA
ATOM      3  N   UNL     1     -44.861 -18.264 -26.152  0.00  0.00    +0.000 NA
ENDROOT
BRANCH   1   4
ATOM      4  C   UNL     1     -44.309 -19.421 -23.951  0.00  0.00    +0.000 A 
ATOM      5  C   UNL     1     -43.000 -19.961 -23.923  0.00  0.00    +0.000 A 
ATOM      6  C   UNL     1     -42.284 -20.069 -22.718  0.00  0.00    +0.000 A 
ATOM      7  C   UNL     1     -42.908 -19.634 -21.553  0.00  0.00    +0.000 A 
ATOM      8  C   UNL     1     -43.372 -19.139 -19.530  0.00  0.00    +0.000 A 
ATOM      9  C   UNL     1     -43.236 -18.973 -18.057  0.00  0.00    +0.000 C 
ATOM     10  C   UNL     1     -44.495 -18.798 -20.275  0.00  0.00    +0.000 A 
ATOM     11  C   UNL     1     -45.770 -18.207 -19.778  0.00  0.00    +0.000 C 
ATOM     12  C   UNL     1     -44.180 -19.121 -21.571  0.00  0.00    +0.000 A 
ATOM     13  C   UNL     1     -44.915 -19.002 -22.748  0.00  0.00    +0.000 A 
ATOM     14  N   UNL     1     -42.392 -19.655 -20.309  0.00  0.00    +0.000 NA
ENDBRANCH   1   4
BRANCH   3  19
ATOM     15  C   UNL     1     -45.357 -14.850 -24.682  0.00  0.00    +0.000 A 
ATOM     16  C   UNL     1     -44.257 -14.172 -25.226  0.00  0.00    +0.000 A 
ATOM     17  C   UNL     1     -43.365 -14.842 -26.066  0.00  0.00    +0.000 A 
ATOM     18  C   UNL     1     -43.556 -16.200 -26.369  0.00  0.00    +0.000 A 
ATOM     19  C   UNL     1     -44.648 -16.886 -25.815  0.00  0.00    +0.000 A 
ATOM     20  C   UNL     1     -45.549 -16.200 -24.986  0.00  0.00    +0.000 A 
BRANCH  15  21
ATOM     21  O   UNL     1     -46.273 -14.209 -23.842  0.00  0.00    +0.000 OA
BRANCH  21  23
ATOM     22  C   UNL     1     -46.196 -14.848 -21.533  0.00  0.00    +0.000 C 
ATOM     23  C   UNL     1     -45.932 -13.750 -22.542  0.00  0.00    +0.000 C 
ENDBRANCH  21  23
ENDBRANCH  15  21
BRANCH  18  24
ATOM     24  O   UNL     1     -42.674 -16.883 -27.215  0.00  0.00    +0.000 OA
BRANCH  24  25
ATOM     25  C   UNL     1     -41.447 -17.438 -26.761  0.00  0.00    +0.000 C 
ATOM     26  C   UNL     1     -41.405 -18.913 -27.101  0.00  0.00    +0.000 C 
ENDBRANCH  24  25
ENDBRANCH  18  24
ENDBRANCH   3  19
TORSDOF 6
ENDMDL
