MODEL 1
REMARK VINA RESULT:      -5.9      0.000      0.000
REMARK  Name = ZINC000072241411 ZINC72241411 PubChem-95739681
REMARK  2 active torsions:
REMARK  status: ('A' for Active; 'I' for Inactive)
REMARK    1  A    between atoms: C_5  and  C_6
REMARK    2  A    between atoms: C_7  and  C_11
REMARK                            x       y       z     vdW  Elec       q    Type
REMARK                         _______ _______ _______ _____ _____    ______ ____
ROOT
ATOM      1  C   UNL     1     -44.479 -16.228 -23.873  0.00  0.00    +0.000 C 
ATOM      2  C   UNL     1     -45.074 -17.648 -23.780  0.00  0.00    +0.000 C 
ATOM      3  C   UNL     1     -43.460 -18.126 -25.650  0.00  0.00    +0.000 C 
ATOM      4  C   UNL     1     -42.955 -16.724 -25.547  0.00  0.00    +0.000 C 
ATOM      5  C   UNL     1     -45.224 -19.807 -25.070  0.00  0.00    +0.000 C 
ATOM      6  N   UNL     1     -44.572 -18.527 -24.840  0.00  0.00    +0.000 N 
ATOM      7  O   UNL     1     -42.949 -18.917 -26.487  0.00  0.00    +0.000 OA
ATOM      8  O   UNL     1     -43.109 -16.224 -24.235  0.00  0.00    +0.000 OA
ENDROOT
BRANCH   1  13
ATOM      9  C   UNL     1     -46.638  -9.571 -26.484  0.00  0.00    +0.000 C 
ATOM     10  C   UNL     1     -46.457 -11.008 -26.149  0.00  0.00    +0.000 A 
ATOM     11  C   UNL     1     -45.481 -11.519 -25.315  0.00  0.00    +0.000 A 
ATOM     12  C   UNL     1     -45.769 -12.870 -25.360  0.00  0.00    +0.000 A 
ATOM     13  C   UNL     1     -45.316 -15.274 -24.677  0.00  0.00    +0.000 C 
ATOM     14  N   UNL     1     -46.825 -13.124 -26.154  0.00  0.00    +0.000 NA
ATOM     15  N   UNL     1     -45.032 -13.869 -24.649  0.00  0.00    +0.000 NA
ATOM     16  O   UNL     1     -47.214 -11.973 -26.612  0.00  0.00    +0.000 OA
ATOM     17  O   UNL     1     -46.281 -15.724 -25.348  0.00  0.00    +0.000 OA
ENDBRANCH   1  13
BRANCH   2  18
ATOM     18  C   UNL     1     -44.811 -18.240 -22.429  0.00  0.00    +0.000 A 
ATOM     19  C   UNL     1     -43.547 -18.745 -22.091  0.00  0.00    +0.000 A 
ATOM     20  C   UNL     1     -43.328 -19.300 -20.827  0.00  0.00    +0.000 A 
ATOM     21  C   UNL     1     -44.370 -19.354 -19.897  0.00  0.00    +0.000 A 
ATOM     22  C   UNL     1     -45.632 -18.855 -20.232  0.00  0.00    +0.000 A 
ATOM     23  C   UNL     1     -45.852 -18.299 -21.496  0.00  0.00    +0.000 A 
ATOM     24 CL   UNL     1     -44.096 -20.049 -18.314  0.00  0.00    +0.000 Cl
ENDBRANCH   2  18
TORSDOF 2
ENDMDL
MODEL 2
REMARK VINA RESULT:      -5.9      9.719     15.304
REMARK  Name = ZINC000072241411 ZINC72241411 PubChem-95739681
REMARK  2 active torsions:
REMARK  status: ('A' for Active; 'I' for Inactive)
REMARK    1  A    between atoms: C_5  and  C_6
REMARK    2  A    between atoms: C_7  and  C_11
REMARK                            x       y       z     vdW  Elec       q    Type
REMARK                         _______ _______ _______ _____ _____    ______ ____
ROOT
ATOM      1  C   UNL     1     -45.593  -3.809 -30.794  0.00  0.00    +0.000 C 
ATOM      2  C   UNL     1     -44.540  -4.230 -31.839  0.00  0.00    +0.000 C 
ATOM      3  C   UNL     1     -46.555  -4.506 -33.321  0.00  0.00    +0.000 C 
ATOM      4  C   UNL     1     -47.418  -4.005 -32.209  0.00  0.00    +0.000 C 
ATOM      5  C   UNL     1     -44.333  -5.392 -34.065  0.00  0.00    +0.000 C 
ATOM      6  N   UNL     1     -45.156  -4.704 -33.082  0.00  0.00    +0.000 N 
ATOM      7  O   UNL     1     -47.072  -4.808 -34.430  0.00  0.00    +0.000 OA
ATOM      8  O   UNL     1     -46.700  -3.131 -31.364  0.00  0.00    +0.000 OA
ENDROOT
BRANCH   1  13
ATOM      9  C   UNL     1     -46.095 -10.852 -28.358  0.00  0.00    +0.000 C 
ATOM     10  C   UNL     1     -46.162  -9.382 -28.567  0.00  0.00    +0.000 A 
ATOM     11  C   UNL     1     -45.620  -8.700 -29.640  0.00  0.00    +0.000 A 
ATOM     12  C   UNL     1     -45.966  -7.398 -29.334  0.00  0.00    +0.000 A 
ATOM     13  C   UNL     1     -45.985  -4.911 -29.852  0.00  0.00    +0.000 C 
ATOM     14  N   UNL     1     -46.652  -7.327 -28.179  0.00  0.00    +0.000 NA
ATOM     15  N   UNL     1     -45.633  -6.270 -30.147  0.00  0.00    +0.000 NA
ATOM     16  O   UNL     1     -46.751  -8.547 -27.745  0.00  0.00    +0.000 OA
ATOM     17  O   UNL     1     -46.649  -4.626 -28.821  0.00  0.00    +0.000 OA
ENDBRANCH   1  13
BRANCH   2  18
ATOM     18  C   UNL     1     -43.591  -3.103 -32.112  0.00  0.00    +0.000 A 
ATOM     19  C   UNL     1     -44.041  -1.777 -32.190  0.00  0.00    +0.000 A 
ATOM     20  C   UNL     1     -43.138  -0.743 -32.454  0.00  0.00    +0.000 A 
ATOM     21  C   UNL     1     -41.783  -1.031 -32.642  0.00  0.00    +0.000 A 
ATOM     22  C   UNL     1     -41.331  -2.352 -32.568  0.00  0.00    +0.000 A 
ATOM     23  C   UNL     1     -42.234  -3.386 -32.304  0.00  0.00    +0.000 A 
ATOM     24 CL   UNL     1     -40.652   0.263 -32.973  0.00  0.00    +0.000 Cl
ENDBRANCH   2  18
TORSDOF 2
ENDMDL
MODEL 3
REMARK VINA RESULT:      -5.8      4.050      6.002
REMARK  Name = ZINC000072241411 ZINC72241411 PubChem-95739681
REMARK  2 active torsions:
REMARK  status: ('A' for Active; 'I' for Inactive)
REMARK    1  A    between atoms: C_5  and  C_6
REMARK    2  A    between atoms: C_7  and  C_11
REMARK                            x       y       z     vdW  Elec       q    Type
REMARK                         _______ _______ _______ _____ _____    ______ ____
ROOT
ATOM      1  C   UNL     1     -44.392 -17.406 -22.034  0.00  0.00    +0.000 C 
ATOM      2  C   UNL     1     -45.592 -17.588 -21.083  0.00  0.00    +0.000 C 
ATOM      3  C   UNL     1     -44.145 -19.388 -20.083  0.00  0.00    +0.000 C 
ATOM      4  C   UNL     1     -43.059 -19.022 -21.041  0.00  0.00    +0.000 C 
ATOM      5  C   UNL     1     -46.556 -19.220 -19.422  0.00  0.00    +0.000 C 
ATOM      6  N   UNL     1     -45.418 -18.738 -20.189  0.00  0.00    +0.000 N 
ATOM      7  O   UNL     1     -43.954 -20.303 -19.237  0.00  0.00    +0.000 OA
ATOM      8  O   UNL     1     -43.145 -17.661 -21.409  0.00  0.00    +0.000 OA
ENDROOT
BRANCH   1  13
ATOM      9  C   UNL     1     -42.286 -19.855 -28.769  0.00  0.00    +0.000 C 
ATOM     10  C   UNL     1     -42.992 -19.509 -27.507  0.00  0.00    +0.000 A 
ATOM     11  C   UNL     1     -42.442 -18.817 -26.446  0.00  0.00    +0.000 A 
ATOM     12  C   UNL     1     -43.507 -18.778 -25.567  0.00  0.00    +0.000 A 
ATOM     13  C   UNL     1     -44.555 -18.103 -23.354  0.00  0.00    +0.000 C 
ATOM     14  N   UNL     1     -44.589 -19.398 -26.075  0.00  0.00    +0.000 NA
ATOM     15  N   UNL     1     -43.461 -18.157 -24.280  0.00  0.00    +0.000 NA
ATOM     16  O   UNL     1     -44.238 -19.826 -27.249  0.00  0.00    +0.000 OA
ATOM     17  O   UNL     1     -45.671 -18.608 -23.643  0.00  0.00    +0.000 OA
ENDBRANCH   1  13
BRANCH   2  18
ATOM     18  C   UNL     1     -45.835 -16.335 -20.297  0.00  0.00    +0.000 A 
ATOM     19  C   UNL     1     -45.771 -16.334 -18.896  0.00  0.00    +0.000 A 
ATOM     20  C   UNL     1     -46.010 -15.155 -18.183  0.00  0.00    +0.000 A 
ATOM     21  C   UNL     1     -46.313 -13.975 -18.868  0.00  0.00    +0.000 A 
ATOM     22  C   UNL     1     -46.380 -13.973 -20.264  0.00  0.00    +0.000 A 
ATOM     23  C   UNL     1     -46.142 -15.152 -20.977  0.00  0.00    +0.000 A 
ATOM     24 CL   UNL     1     -46.611 -12.498 -17.977  0.00  0.00    +0.000 Cl
ENDBRANCH   2  18
TORSDOF 2
ENDMDL
