MODEL 1
REMARK VINA RESULT:      -7.3      0.000      0.000
REMARK  Name = ZINC000096181258 ZINC96181258 PubChem-97457130
REMARK  4 active torsions:
REMARK  status: ('A' for Active; 'I' for Inactive)
REMARK    1  A    between atoms: C_5  and  C_8
REMARK    2  A    between atoms: C_9  and  C_13
REMARK    3  A    between atoms: C_14  and  C_15
REMARK    4  A    between atoms: C_14  and  N_24
REMARK                            x       y       z     vdW  Elec       q    Type
REMARK                         _______ _______ _______ _____ _____    ______ ____
ROOT
ATOM      1  C   UNL     1     -45.102  -5.542 -30.713  0.00  0.00    +0.000 C 
ATOM      2  C   UNL     1     -46.472  -5.449 -30.016  0.00  0.00    +0.000 C 
ATOM      3  C   UNL     1     -47.423  -6.425 -30.722  0.00  0.00    +0.000 C 
ATOM      4  C   UNL     1     -46.591  -6.980 -31.807  0.00  0.00    +0.000 C 
ATOM      5  C   UNL     1     -44.186  -7.010 -32.607  0.00  0.00    +0.000 C 
ATOM      6  O   UNL     1     -46.999  -7.842 -32.628  0.00  0.00    +0.000 OA
ATOM      7  N   UNL     1     -45.279  -6.460 -31.822  0.00  0.00    +0.000 N 
ENDROOT
BRANCH   1  12
ATOM      8  C   UNL     1     -43.454  -0.314 -32.567  0.00  0.00    +0.000 C 
ATOM      9  C   UNL     1     -43.869  -1.660 -32.092  0.00  0.00    +0.000 A 
ATOM     10  C   UNL     1     -45.147  -1.848 -31.558  0.00  0.00    +0.000 A 
ATOM     11  C   UNL     1     -45.539  -3.113 -31.110  0.00  0.00    +0.000 A 
ATOM     12  C   UNL     1     -44.654  -4.193 -31.193  0.00  0.00    +0.000 A 
ATOM     13  C   UNL     1     -43.373  -4.001 -31.731  0.00  0.00    +0.000 A 
ATOM     14  C   UNL     1     -42.982  -2.736 -32.179  0.00  0.00    +0.000 A 
ENDBRANCH   1  12
BRANCH   2  15
ATOM     15  C   UNL     1     -46.347  -5.789 -28.568  0.00  0.00    +0.000 C 
ATOM     16  O   UNL     1     -45.634  -6.769 -28.224  0.00  0.00    +0.000 OA
ATOM     17  N   UNL     1     -47.035  -5.012 -27.585  0.00  0.00    +0.000 NA
BRANCH  17  18
ATOM     18  C   UNL     1     -46.953  -5.317 -26.166  0.00  0.00    +0.000 C 
BRANCH  18  19
ATOM     19  C   UNL     1     -47.106  -4.063 -25.375  0.00  0.00    +0.000 A 
ATOM     20  C   UNL     1     -47.306  -2.849 -26.041  0.00  0.00    +0.000 A 
ATOM     21  C   UNL     1     -47.475  -1.668 -25.313  0.00  0.00    +0.000 A 
ATOM     22  C   UNL     1     -47.452  -1.699 -23.916  0.00  0.00    +0.000 A 
ATOM     23  C   UNL     1     -47.261  -2.911 -23.246  0.00  0.00    +0.000 A 
ATOM     24  C   UNL     1     -47.091  -4.094 -23.971  0.00  0.00    +0.000 A 
ATOM     25  F   UNL     1     -46.912  -5.263 -23.308  0.00  0.00    +0.000 F 
ENDBRANCH  18  19
ENDBRANCH  17  18
ENDBRANCH   2  15
TORSDOF 4
ENDMDL
MODEL 2
REMARK VINA RESULT:      -6.9     11.912     13.424
REMARK  Name = ZINC000096181258 ZINC96181258 PubChem-97457130
REMARK  4 active torsions:
REMARK  status: ('A' for Active; 'I' for Inactive)
REMARK    1  A    between atoms: C_5  and  C_8
REMARK    2  A    between atoms: C_9  and  C_13
REMARK    3  A    between atoms: C_14  and  C_15
REMARK    4  A    between atoms: C_14  and  N_24
REMARK                            x       y       z     vdW  Elec       q    Type
REMARK                         _______ _______ _______ _____ _____    ______ ____
ROOT
ATOM      1  C   UNL     1     -43.960 -16.631 -25.693  0.00  0.00    +0.000 C 
ATOM      2  C   UNL     1     -44.598 -17.968 -26.117  0.00  0.00    +0.000 C 
ATOM      3  C   UNL     1     -43.505 -18.819 -26.778  0.00  0.00    +0.000 C 
ATOM      4  C   UNL     1     -42.328 -17.930 -26.756  0.00  0.00    +0.000 C 
ATOM      5  C   UNL     1     -41.566 -15.717 -25.784  0.00  0.00    +0.000 C 
ATOM      6  O   UNL     1     -41.197 -18.257 -27.203  0.00  0.00    +0.000 OA
ATOM      7  N   UNL     1     -42.589 -16.675 -26.165  0.00  0.00    +0.000 N 
ENDROOT
BRANCH   1  12
ATOM      8  C   UNL     1     -46.869 -12.157 -27.927  0.00  0.00    +0.000 C 
ATOM      9  C   UNL     1     -46.118 -13.307 -27.361  0.00  0.00    +0.000 A 
ATOM     10  C   UNL     1     -46.174 -13.570 -25.989  0.00  0.00    +0.000 A 
ATOM     11  C   UNL     1     -45.468 -14.652 -25.456  0.00  0.00    +0.000 A 
ATOM     12  C   UNL     1     -44.702 -15.473 -26.290  0.00  0.00    +0.000 A 
ATOM     13  C   UNL     1     -44.650 -15.207 -27.667  0.00  0.00    +0.000 A 
ATOM     14  C   UNL     1     -45.357 -14.126 -28.200  0.00  0.00    +0.000 A 
ENDBRANCH   1  12
BRANCH   2  15
ATOM     15  C   UNL     1     -45.173 -18.673 -24.934  0.00  0.00    +0.000 C 
ATOM     16  O   UNL     1     -45.985 -19.619 -25.114  0.00  0.00    +0.000 OA
ATOM     17  N   UNL     1     -44.808 -18.272 -23.611  0.00  0.00    +0.000 NA
BRANCH  17  18
ATOM     18  C   UNL     1     -45.354 -18.921 -22.431  0.00  0.00    +0.000 C 
BRANCH  18  19
ATOM     19  C   UNL     1     -45.670 -17.895 -21.397  0.00  0.00    +0.000 A 
ATOM     20  C   UNL     1     -45.467 -16.541 -21.686  0.00  0.00    +0.000 A 
ATOM     21  C   UNL     1     -45.781 -15.565 -20.736  0.00  0.00    +0.000 A 
ATOM     22  C   UNL     1     -46.306 -15.940 -19.496  0.00  0.00    +0.000 A 
ATOM     23  C   UNL     1     -46.519 -17.291 -19.206  0.00  0.00    +0.000 A 
ATOM     24  C   UNL     1     -46.205 -18.270 -20.154  0.00  0.00    +0.000 A 
ATOM     25  F   UNL     1     -46.422 -19.576 -19.861  0.00  0.00    +0.000 F 
ENDBRANCH  18  19
ENDBRANCH  17  18
ENDBRANCH   2  15
TORSDOF 4
ENDMDL
MODEL 3
REMARK VINA RESULT:      -6.8      3.663      7.441
REMARK  Name = ZINC000096181258 ZINC96181258 PubChem-97457130
REMARK  4 active torsions:
REMARK  status: ('A' for Active; 'I' for Inactive)
REMARK    1  A    between atoms: C_5  and  C_8
REMARK    2  A    between atoms: C_9  and  C_13
REMARK    3  A    between atoms: C_14  and  C_15
REMARK    4  A    between atoms: C_14  and  N_24
REMARK                            x       y       z     vdW  Elec       q    Type
REMARK                         _______ _______ _______ _____ _____    ______ ____
ROOT
ATOM      1  C   UNL     1     -45.973  -6.475 -30.387  0.00  0.00    +0.000 C 
ATOM      2  C   UNL     1     -46.925  -5.905 -31.456  0.00  0.00    +0.000 C 
ATOM      3  C   UNL     1     -47.756  -4.795 -30.798  0.00  0.00    +0.000 C 
ATOM      4  C   UNL     1     -47.296  -4.816 -29.397  0.00  0.00    +0.000 C 
ATOM      5  C   UNL     1     -45.498  -5.855 -27.944  0.00  0.00    +0.000 C 
ATOM      6  O   UNL     1     -47.730  -4.037 -28.508  0.00  0.00    +0.000 OA
ATOM      7  N   UNL     1     -46.302  -5.788 -29.152  0.00  0.00    +0.000 N 
ENDROOT
BRANCH   1  12
ATOM      8  C   UNL     1     -46.605 -12.205 -29.896  0.00  0.00    +0.000 C 
ATOM      9  C   UNL     1     -46.450 -10.732 -30.018  0.00  0.00    +0.000 A 
ATOM     10  C   UNL     1     -45.248 -10.193 -30.484  0.00  0.00    +0.000 A 
ATOM     11  C   UNL     1     -45.101  -8.807 -30.599  0.00  0.00    +0.000 A 
ATOM     12  C   UNL     1     -46.154  -7.956 -30.247  0.00  0.00    +0.000 A 
ATOM     13  C   UNL     1     -47.360  -8.502 -29.781  0.00  0.00    +0.000 A 
ATOM     14  C   UNL     1     -47.506  -9.887 -29.667  0.00  0.00    +0.000 A 
ENDBRANCH   1  12
BRANCH   2  15
ATOM     15  C   UNL     1     -46.150  -5.369 -32.614  0.00  0.00    +0.000 C 
ATOM     16  O   UNL     1     -46.708  -5.276 -33.740  0.00  0.00    +0.000 OA
ATOM     17  N   UNL     1     -44.788  -4.971 -32.445  0.00  0.00    +0.000 NA
BRANCH  17  18
ATOM     18  C   UNL     1     -43.992  -4.458 -33.548  0.00  0.00    +0.000 C 
BRANCH  18  19
ATOM     19  C   UNL     1     -43.547  -3.069 -33.240  0.00  0.00    +0.000 A 
ATOM     20  C   UNL     1     -42.219  -2.840 -32.864  0.00  0.00    +0.000 A 
ATOM     21  C   UNL     1     -41.780  -1.540 -32.595  0.00  0.00    +0.000 A 
ATOM     22  C   UNL     1     -42.665  -0.466 -32.709  0.00  0.00    +0.000 A 
ATOM     23  C   UNL     1     -43.991  -0.689 -33.093  0.00  0.00    +0.000 A 
ATOM     24  C   UNL     1     -44.434  -1.988 -33.362  0.00  0.00    +0.000 A 
ATOM     25  F   UNL     1     -45.721  -2.189 -33.738  0.00  0.00    +0.000 F 
ENDBRANCH  18  19
ENDBRANCH  17  18
ENDBRANCH   2  15
TORSDOF 4
ENDMDL
