MODEL 1
REMARK VINA RESULT:      -6.5      0.000      0.000
REMARK  Name = ZINC000072335159 ZINC72335159 PubChem-95797838
REMARK  4 active torsions:
REMARK  status: ('A' for Active; 'I' for Inactive)
REMARK    1  A    between atoms: C_3  and  C_6
REMARK    2  A    between atoms: C_8  and  C_10
REMARK    3  A    between atoms: C_11  and  C_12
REMARK    4  A    between atoms: C_11  and  N_22
REMARK                            x       y       z     vdW  Elec       q    Type
REMARK                         _______ _______ _______ _____ _____    ______ ____
ROOT
ATOM      1  C   UNL     1     -46.557  -9.922 -31.458  0.00  0.00    +0.000 C 
ATOM      2  C   UNL     1     -46.966  -8.492 -31.825  0.00  0.00    +0.000 C 
ATOM      3  C   UNL     1     -46.082  -7.446 -31.146  0.00  0.00    +0.000 C 
ATOM      4  C   UNL     1     -43.883  -6.543 -30.955  0.00  0.00    +0.000 C 
ATOM      5  N   UNL     1     -44.722  -7.477 -31.700  0.00  0.00    +0.000 NA
ATOM      6  N   UNL     1     -45.213 -10.260 -31.939  0.00  0.00    +0.000 NA
ATOM      7  S   UNL     1     -44.059  -9.062 -31.436  0.00  0.00    +0.000 S 
ATOM      8  O   UNL     1     -42.806  -9.217 -32.250  0.00  0.00    +0.000 OA
ATOM      9  O   UNL     1     -43.728  -9.257 -29.981  0.00  0.00    +0.000 OA
ENDROOT
BRANCH   1  12
ATOM     10  C   UNL     1     -46.309 -12.810 -30.074  0.00  0.00    +0.000 C 
ATOM     11  C   UNL     1     -46.626 -11.520 -29.403  0.00  0.00    +0.000 A 
ATOM     12  C   UNL     1     -46.767 -10.278 -30.007  0.00  0.00    +0.000 A 
ATOM     13  C   UNL     1     -46.969  -9.390 -28.964  0.00  0.00    +0.000 A 
ATOM     14  C   UNL     1     -47.173  -9.568 -26.498  0.00  0.00    +0.000 C 
ATOM     15  N   UNL     1     -46.983 -10.112 -27.829  0.00  0.00    +0.000 N 
ATOM     16  N   UNL     1     -46.770 -11.393 -28.073  0.00  0.00    +0.000 NA
ENDBRANCH   1  12
BRANCH   3  17
ATOM     17  C   UNL     1     -46.716  -6.102 -31.340  0.00  0.00    +0.000 C 
ATOM     18  N   UNL     1     -46.617  -5.437 -32.602  0.00  0.00    +0.000 NA
ATOM     19  O   UNL     1     -47.330  -5.564 -30.381  0.00  0.00    +0.000 OA
BRANCH  18  20
ATOM     20  C   UNL     1     -47.212  -4.131 -32.833  0.00  0.00    +0.000 C 
BRANCH  20  21
ATOM     21  C   UNL     1     -46.185  -3.072 -32.647  0.00  0.00    +0.000 A 
ATOM     22  C   UNL     1     -45.394  -2.667 -33.727  0.00  0.00    +0.000 A 
ATOM     23  C   UNL     1     -44.445  -1.654 -33.559  0.00  0.00    +0.000 A 
ATOM     24  C   UNL     1     -44.289  -1.042 -32.311  0.00  0.00    +0.000 A 
ATOM     25  C   UNL     1     -45.085  -1.440 -31.233  0.00  0.00    +0.000 A 
ATOM     26  C   UNL     1     -46.035  -2.453 -31.401  0.00  0.00    +0.000 A 
ATOM     27  F   UNL     1     -43.369  -0.061 -32.148  0.00  0.00    +0.000 F 
ENDBRANCH  20  21
ENDBRANCH  18  20
ENDBRANCH   3  17
TORSDOF 4
ENDMDL
MODEL 2
REMARK VINA RESULT:      -6.2     12.800     14.922
REMARK  Name = ZINC000072335159 ZINC72335159 PubChem-95797838
REMARK  4 active torsions:
REMARK  status: ('A' for Active; 'I' for Inactive)
REMARK    1  A    between atoms: C_3  and  C_6
REMARK    2  A    between atoms: C_8  and  C_10
REMARK    3  A    between atoms: C_11  and  C_12
REMARK    4  A    between atoms: C_11  and  N_22
REMARK                            x       y       z     vdW  Elec       q    Type
REMARK                         _______ _______ _______ _____ _____    ______ ____
ROOT
ATOM      1  C   UNL     1     -44.331 -19.552 -25.502  0.00  0.00    +0.000 C 
ATOM      2  C   UNL     1     -44.786 -19.546 -24.038  0.00  0.00    +0.000 C 
ATOM      3  C   UNL     1     -44.227 -18.352 -23.264  0.00  0.00    +0.000 C 
ATOM      4  C   UNL     1     -44.201 -15.978 -23.046  0.00  0.00    +0.000 C 
ATOM      5  N   UNL     1     -44.836 -17.100 -23.731  0.00  0.00    +0.000 NA
ATOM      6  N   UNL     1     -44.843 -18.401 -26.251  0.00  0.00    +0.000 NA
ATOM      7  S   UNL     1     -44.482 -16.916 -25.422  0.00  0.00    +0.000 S 
ATOM      8  O   UNL     1     -45.336 -15.819 -25.991  0.00  0.00    +0.000 OA
ATOM      9  O   UNL     1     -43.032 -16.565 -25.621  0.00  0.00    +0.000 OA
ENDROOT
BRANCH   1  12
ATOM     10  C   UNL     1     -42.691 -19.689 -28.261  0.00  0.00    +0.000 C 
ATOM     11  C   UNL     1     -42.136 -19.788 -26.883  0.00  0.00    +0.000 A 
ATOM     12  C   UNL     1     -42.848 -19.765 -25.692  0.00  0.00    +0.000 A 
ATOM     13  C   UNL     1     -41.889 -19.798 -24.695  0.00  0.00    +0.000 A 
ATOM     14  C   UNL     1     -39.413 -19.944 -24.622  0.00  0.00    +0.000 C 
ATOM     15  N   UNL     1     -40.691 -19.881 -25.304  0.00  0.00    +0.000 N 
ATOM     16  N   UNL     1     -40.821 -19.868 -26.619  0.00  0.00    +0.000 NA
ENDBRANCH   1  12
BRANCH   3  17
ATOM     17  C   UNL     1     -44.494 -18.575 -21.806  0.00  0.00    +0.000 C 
ATOM     18  N   UNL     1     -45.798 -18.338 -21.272  0.00  0.00    +0.000 NA
ATOM     19  O   UNL     1     -43.558 -18.967 -21.060  0.00  0.00    +0.000 OA
BRANCH  18  20
ATOM     20  C   UNL     1     -46.101 -18.536 -19.863  0.00  0.00    +0.000 C 
BRANCH  20  21
ATOM     21  C   UNL     1     -46.180 -17.219 -19.177  0.00  0.00    +0.000 A 
ATOM     22  C   UNL     1     -47.419 -16.714 -18.771  0.00  0.00    +0.000 A 
ATOM     23  C   UNL     1     -47.491 -15.488 -18.105  0.00  0.00    +0.000 A 
ATOM     24  C   UNL     1     -46.323 -14.767 -17.838  0.00  0.00    +0.000 A 
ATOM     25  C   UNL     1     -45.083 -15.274 -18.236  0.00  0.00    +0.000 A 
ATOM     26  C   UNL     1     -45.009 -16.502 -18.903  0.00  0.00    +0.000 A 
ATOM     27  F   UNL     1     -46.393 -13.578 -17.193  0.00  0.00    +0.000 F 
ENDBRANCH  20  21
ENDBRANCH  18  20
ENDBRANCH   3  17
TORSDOF 4
ENDMDL
MODEL 3
REMARK VINA RESULT:      -6.1      2.481      3.086
REMARK  Name = ZINC000072335159 ZINC72335159 PubChem-95797838
REMARK  4 active torsions:
REMARK  status: ('A' for Active; 'I' for Inactive)
REMARK    1  A    between atoms: C_3  and  C_6
REMARK    2  A    between atoms: C_8  and  C_10
REMARK    3  A    between atoms: C_11  and  C_12
REMARK    4  A    between atoms: C_11  and  N_22
REMARK                            x       y       z     vdW  Elec       q    Type
REMARK                         _______ _______ _______ _____ _____    ______ ____
ROOT
ATOM      1  C   UNL     1     -44.328  -8.757 -29.296  0.00  0.00    +0.000 C 
ATOM      2  C   UNL     1     -44.757  -7.434 -29.940  0.00  0.00    +0.000 C 
ATOM      3  C   UNL     1     -45.832  -6.716 -29.123  0.00  0.00    +0.000 C 
ATOM      4  C   UNL     1     -46.354  -5.640 -27.061  0.00  0.00    +0.000 C 
ATOM      5  N   UNL     1     -45.277  -6.221 -27.857  0.00  0.00    +0.000 NA
ATOM      6  N   UNL     1     -43.681  -8.562 -27.995  0.00  0.00    +0.000 NA
ATOM      7  S   UNL     1     -44.670  -7.578 -26.957  0.00  0.00    +0.000 S 
ATOM      8  O   UNL     1     -43.833  -7.080 -25.814  0.00  0.00    +0.000 OA
ATOM      9  O   UNL     1     -45.807  -8.400 -26.414  0.00  0.00    +0.000 OA
ENDROOT
BRANCH   1  12
ATOM     10  C   UNL     1     -46.536  -9.400 -31.539  0.00  0.00    +0.000 C 
ATOM     11  C   UNL     1     -46.336 -10.113 -30.248  0.00  0.00    +0.000 A 
ATOM     12  C   UNL     1     -45.406  -9.813 -29.264  0.00  0.00    +0.000 A 
ATOM     13  C   UNL     1     -45.553 -10.807 -28.311  0.00  0.00    +0.000 A 
ATOM     14  C   UNL     1     -47.040 -12.771 -28.013  0.00  0.00    +0.000 C 
ATOM     15  N   UNL     1     -46.555 -11.604 -28.725  0.00  0.00    +0.000 N 
ATOM     16  N   UNL     1     -47.032 -11.207 -29.892  0.00  0.00    +0.000 NA
ENDBRANCH   1  12
BRANCH   3  17
ATOM     17  C   UNL     1     -46.376  -5.594 -29.953  0.00  0.00    +0.000 C 
ATOM     18  N   UNL     1     -45.540  -4.488 -30.302  0.00  0.00    +0.000 NA
ATOM     19  O   UNL     1     -47.577  -5.632 -30.334  0.00  0.00    +0.000 OA
BRANCH  18  20
ATOM     20  C   UNL     1     -46.027  -3.376 -31.101  0.00  0.00    +0.000 C 
BRANCH  20  21
ATOM     21  C   UNL     1     -44.879  -2.561 -31.579  0.00  0.00    +0.000 A 
ATOM     22  C   UNL     1     -43.659  -3.178 -31.876  0.00  0.00    +0.000 A 
ATOM     23  C   UNL     1     -42.586  -2.416 -32.349  0.00  0.00    +0.000 A 
ATOM     24  C   UNL     1     -42.734  -1.037 -32.531  0.00  0.00    +0.000 A 
ATOM     25  C   UNL     1     -43.955  -0.421 -32.242  0.00  0.00    +0.000 A 
ATOM     26  C   UNL     1     -45.029  -1.182 -31.770  0.00  0.00    +0.000 A 
ATOM     27  F   UNL     1     -41.694  -0.299 -32.988  0.00  0.00    +0.000 F 
ENDBRANCH  20  21
ENDBRANCH  18  20
ENDBRANCH   3  17
TORSDOF 4
ENDMDL
