MODEL 1
REMARK VINA RESULT:      -6.4      0.000      0.000
REMARK  Name = ZINC000035340400 PubChem-2311905
REMARK  8 active torsions:
REMARK  status: ('A' for Active; 'I' for Inactive)
REMARK    1  A    between atoms: C_2  and  O_24
REMARK    2  A    between atoms: C_3  and  O_27
REMARK    3  A    between atoms: C_5  and  C_8
REMARK    4  A    between atoms: C_9  and  C_10
REMARK    5  A    between atoms: C_11  and  C_12
REMARK    6  A    between atoms: C_11  and  N_28
REMARK    7  A    between atoms: C_12  and  C_13
REMARK    8  A    between atoms: C_12  and  N_29
REMARK                            x       y       z     vdW  Elec       q    Type
REMARK                         _______ _______ _______ _____ _____    ______ ____
ROOT
ATOM      1  C   UNL     1     -45.037  -5.481 -29.848  0.00  0.00    +0.000 C 
ENDROOT
BRANCH   1   4
ATOM      2  C   UNL     1     -46.272  -3.861 -31.356  0.00  0.00    +0.000 C 
ATOM      3  O   UNL     1     -46.578  -3.138 -30.371  0.00  0.00    +0.000 OA
ATOM      4  N   UNL     1     -45.495  -5.046 -31.160  0.00  0.00    +0.000 NA
BRANCH   2   6
ATOM      5  C   UNL     1     -45.958  -2.608 -33.519  0.00  0.00    +0.000 C 
ATOM      6  C   UNL     1     -46.652  -3.415 -32.705  0.00  0.00    +0.000 C 
BRANCH   5  10
ATOM      7  C   UNL     1     -41.943  -1.262 -32.844  0.00  0.00    +0.000 A 
ATOM      8  C   UNL     1     -42.193  -2.527 -33.433  0.00  0.00    +0.000 A 
ATOM      9  C   UNL     1     -43.514  -2.929 -33.654  0.00  0.00    +0.000 A 
ATOM     10  C   UNL     1     -44.589  -2.101 -33.323  0.00  0.00    +0.000 A 
ATOM     11  C   UNL     1     -44.340  -0.868 -32.713  0.00  0.00    +0.000 A 
ATOM     12  C   UNL     1     -43.030  -0.448 -32.484  0.00  0.00    +0.000 A 
BRANCH   7  14
ATOM     13  C   UNL     1     -40.310   0.211 -31.699  0.00  0.00    +0.000 C 
ATOM     14  O   UNL     1     -40.633  -0.826 -32.617  0.00  0.00    +0.000 OA
ENDBRANCH   7  14
BRANCH   8  16
ATOM     15  C   UNL     1     -40.639  -4.438 -32.982  0.00  0.00    +0.000 C 
ATOM     16  O   UNL     1     -41.182  -3.424 -33.815  0.00  0.00    +0.000 OA
ENDBRANCH   8  16
ENDBRANCH   5  10
ENDBRANCH   2   6
ENDBRANCH   1   4
BRANCH   1  17
ATOM     17  C   UNL     1     -46.146  -6.236 -29.120  0.00  0.00    +0.000 C 
BRANCH  17  18
ATOM     18  C   UNL     1     -46.233  -7.678 -29.559  0.00  0.00    +0.000 A 
ATOM     19  C   UNL     1     -45.062  -8.444 -29.594  0.00  0.00    +0.000 A 
ATOM     20  C   UNL     1     -45.109  -9.786 -29.980  0.00  0.00    +0.000 A 
ATOM     21  C   UNL     1     -46.329 -10.372 -30.328  0.00  0.00    +0.000 A 
ATOM     22  C   UNL     1     -47.503  -9.617 -30.285  0.00  0.00    +0.000 A 
ATOM     23  C   UNL     1     -47.458  -8.274 -29.900  0.00  0.00    +0.000 A 
ATOM     24  F   UNL     1     -46.372 -11.673 -30.702  0.00  0.00    +0.000 F 
ENDBRANCH  17  18
BRANCH  17  30
ATOM     25  C   UNL     1     -46.471  -7.241 -26.921  0.00  0.00    +0.000 C 
ATOM     26  C   UNL     1     -46.500  -6.935 -25.422  0.00  0.00    +0.000 C 
ATOM     27  C   UNL     1     -46.945  -4.744 -25.768  0.00  0.00    +0.000 C 
ATOM     28  C   UNL     1     -46.944  -4.908 -27.289  0.00  0.00    +0.000 C 
ATOM     29  O   UNL     1     -47.437  -5.916 -25.165  0.00  0.00    +0.000 OA
ATOM     30  N   UNL     1     -46.080  -6.033 -27.662  0.00  0.00    +0.000 NA
ENDBRANCH  17  30
ENDBRANCH   1  17
TORSDOF 8
ENDMDL
MODEL 2
REMARK VINA RESULT:      -6.4     10.581     15.585
REMARK  Name = ZINC000035340400 PubChem-2311905
REMARK  8 active torsions:
REMARK  status: ('A' for Active; 'I' for Inactive)
REMARK    1  A    between atoms: C_2  and  O_24
REMARK    2  A    between atoms: C_3  and  O_27
REMARK    3  A    between atoms: C_5  and  C_8
REMARK    4  A    between atoms: C_9  and  C_10
REMARK    5  A    between atoms: C_11  and  C_12
REMARK    6  A    between atoms: C_11  and  N_28
REMARK    7  A    between atoms: C_12  and  C_13
REMARK    8  A    between atoms: C_12  and  N_29
REMARK                            x       y       z     vdW  Elec       q    Type
REMARK                         _______ _______ _______ _____ _____    ______ ____
ROOT
ATOM      1  C   UNL     1     -45.889 -14.325 -23.287  0.00  0.00    +0.000 C 
ENDROOT
BRANCH   1   4
ATOM      2  C   UNL     1     -46.339 -14.222 -20.795  0.00  0.00    +0.000 C 
ATOM      3  O   UNL     1     -45.414 -13.381 -20.637  0.00  0.00    +0.000 OA
ATOM      4  N   UNL     1     -46.630 -14.729 -22.101  0.00  0.00    +0.000 NA
BRANCH   2   6
ATOM      5  C   UNL     1     -47.145 -15.764 -18.973  0.00  0.00    +0.000 C 
ATOM      6  C   UNL     1     -47.159 -14.598 -19.633  0.00  0.00    +0.000 C 
BRANCH   5  10
ATOM      7  C   UNL     1     -44.332 -18.936 -19.619  0.00  0.00    +0.000 A 
ATOM      8  C   UNL     1     -43.893 -17.651 -19.212  0.00  0.00    +0.000 A 
ATOM      9  C   UNL     1     -44.839 -16.643 -18.995  0.00  0.00    +0.000 A 
ATOM     10  C   UNL     1     -46.205 -16.883 -19.152  0.00  0.00    +0.000 A 
ATOM     11  C   UNL     1     -46.632 -18.143 -19.585  0.00  0.00    +0.000 A 
ATOM     12  C   UNL     1     -45.706 -19.162 -19.807  0.00  0.00    +0.000 A 
BRANCH   7  14
ATOM     13  C   UNL     1     -42.605 -20.054 -21.003  0.00  0.00    +0.000 C 
ATOM     14  O   UNL     1     -43.414 -19.969 -19.837  0.00  0.00    +0.000 OA
ENDBRANCH   7  14
BRANCH   8  16
ATOM     15  C   UNL     1     -41.830 -16.343 -19.762  0.00  0.00    +0.000 C 
ATOM     16  O   UNL     1     -42.545 -17.314 -19.011  0.00  0.00    +0.000 OA
ENDBRANCH   8  16
ENDBRANCH   5  10
ENDBRANCH   2   6
ENDBRANCH   1   4
BRANCH   1  17
ATOM     17  C   UNL     1     -44.602 -15.137 -23.414  0.00  0.00    +0.000 C 
BRANCH  17  18
ATOM     18  C   UNL     1     -44.861 -16.533 -23.924  0.00  0.00    +0.000 A 
ATOM     19  C   UNL     1     -44.800 -16.770 -25.302  0.00  0.00    +0.000 A 
ATOM     20  C   UNL     1     -45.018 -18.054 -25.808  0.00  0.00    +0.000 A 
ATOM     21  C   UNL     1     -45.294 -19.111 -24.936  0.00  0.00    +0.000 A 
ATOM     22  C   UNL     1     -45.346 -18.885 -23.559  0.00  0.00    +0.000 A 
ATOM     23  C   UNL     1     -45.128 -17.601 -23.052  0.00  0.00    +0.000 A 
ATOM     24  F   UNL     1     -45.506 -20.356 -25.427  0.00  0.00    +0.000 F 
ENDBRANCH  17  18
BRANCH  17  30
ATOM     25  C   UNL     1     -42.437 -14.022 -23.261  0.00  0.00    +0.000 C 
ATOM     26  C   UNL     1     -41.445 -13.153 -24.036  0.00  0.00    +0.000 C 
ATOM     27  C   UNL     1     -43.048 -12.376 -25.431  0.00  0.00    +0.000 C 
ATOM     28  C   UNL     1     -44.145 -13.195 -24.746  0.00  0.00    +0.000 C 
ATOM     29  O   UNL     1     -42.088 -11.983 -24.481  0.00  0.00    +0.000 OA
ATOM     30  N   UNL     1     -43.556 -14.394 -24.139  0.00  0.00    +0.000 NA
ENDBRANCH  17  30
ENDBRANCH   1  17
TORSDOF 8
ENDMDL
MODEL 3
REMARK VINA RESULT:      -6.4      3.034      7.522
REMARK  Name = ZINC000035340400 PubChem-2311905
REMARK  8 active torsions:
REMARK  status: ('A' for Active; 'I' for Inactive)
REMARK    1  A    between atoms: C_2  and  O_24
REMARK    2  A    between atoms: C_3  and  O_27
REMARK    3  A    between atoms: C_5  and  C_8
REMARK    4  A    between atoms: C_9  and  C_10
REMARK    5  A    between atoms: C_11  and  C_12
REMARK    6  A    between atoms: C_11  and  N_28
REMARK    7  A    between atoms: C_12  and  C_13
REMARK    8  A    between atoms: C_12  and  N_29
REMARK                            x       y       z     vdW  Elec       q    Type
REMARK                         _______ _______ _______ _____ _____    ______ ____
ROOT
ATOM      1  C   UNL     1     -44.224  -4.962 -32.810  0.00  0.00    +0.000 C 
ENDROOT
BRANCH   1   4
ATOM      2  C   UNL     1     -44.786  -7.036 -34.154  0.00  0.00    +0.000 C 
ATOM      3  O   UNL     1     -43.567  -7.346 -34.234  0.00  0.00    +0.000 OA
ATOM      4  N   UNL     1     -45.180  -5.856 -33.448  0.00  0.00    +0.000 NA
BRANCH   2   6
ATOM      5  C   UNL     1     -46.519  -8.863 -34.063  0.00  0.00    +0.000 C 
ATOM      6  C   UNL     1     -45.787  -7.953 -34.721  0.00  0.00    +0.000 C 
BRANCH   5  10
ATOM      7  C   UNL     1     -46.867  -9.571 -29.848  0.00  0.00    +0.000 A 
ATOM      8  C   UNL     1     -46.152 -10.472 -30.677  0.00  0.00    +0.000 A 
ATOM      9  C   UNL     1     -46.044 -10.203 -32.046  0.00  0.00    +0.000 A 
ATOM     10  C   UNL     1     -46.610  -9.056 -32.606  0.00  0.00    +0.000 A 
ATOM     11  C   UNL     1     -47.341  -8.185 -31.792  0.00  0.00    +0.000 A 
ATOM     12  C   UNL     1     -47.460  -8.435 -30.425  0.00  0.00    +0.000 A 
BRANCH   7  14
ATOM     13  C   UNL     1     -45.933  -9.559 -27.551  0.00  0.00    +0.000 C 
ATOM     14  O   UNL     1     -46.986  -9.805 -28.474  0.00  0.00    +0.000 OA
ENDBRANCH   7  14
BRANCH   8  16
ATOM     15  C   UNL     1     -46.147 -12.924 -30.172  0.00  0.00    +0.000 C 
ATOM     16  O   UNL     1     -45.536 -11.643 -30.208  0.00  0.00    +0.000 OA
ENDBRANCH   8  16
ENDBRANCH   5  10
ENDBRANCH   2   6
ENDBRANCH   1   4
BRANCH   1  17
ATOM     17  C   UNL     1     -44.947  -3.971 -31.900  0.00  0.00    +0.000 C 
BRANCH  17  18
ATOM     18  C   UNL     1     -45.368  -4.602 -30.596  0.00  0.00    +0.000 A 
ATOM     19  C   UNL     1     -46.605  -4.250 -30.045  0.00  0.00    +0.000 A 
ATOM     20  C   UNL     1     -47.034  -4.827 -28.846  0.00  0.00    +0.000 A 
ATOM     21  C   UNL     1     -46.229  -5.765 -28.195  0.00  0.00    +0.000 A 
ATOM     22  C   UNL     1     -44.997  -6.129 -28.743  0.00  0.00    +0.000 A 
ATOM     23  C   UNL     1     -44.567  -5.552 -29.942  0.00  0.00    +0.000 A 
ATOM     24  F   UNL     1     -46.645  -6.324 -27.032  0.00  0.00    +0.000 F 
ENDBRANCH  17  18
BRANCH  17  30
ATOM     25  C   UNL     1     -44.865  -1.601 -32.475  0.00  0.00    +0.000 C 
ATOM     26  C   UNL     1     -43.988  -0.350 -32.404  0.00  0.00    +0.000 C 
ATOM     27  C   UNL     1     -42.086  -1.560 -32.221  0.00  0.00    +0.000 C 
ATOM     28  C   UNL     1     -42.839  -2.891 -32.279  0.00  0.00    +0.000 C 
ATOM     29  O   UNL     1     -42.746  -0.606 -33.016  0.00  0.00    +0.000 OA
ATOM     30  N   UNL     1     -44.202  -2.707 -31.768  0.00  0.00    +0.000 NA
ENDBRANCH  17  30
ENDBRANCH   1  17
TORSDOF 8
ENDMDL
