MODEL 1
REMARK VINA RESULT:      -6.9      0.000      0.000
REMARK  Name = ZINC000096181390
REMARK  4 active torsions:
REMARK  status: ('A' for Active; 'I' for Inactive)
REMARK    1  A    between atoms: C_5  and  C_6
REMARK    2  A    between atoms: C_6  and  N_20
REMARK    3  A    between atoms: C_7  and  C_8
REMARK    4  A    between atoms: C_12  and  C_13
REMARK                            x       y       z     vdW  Elec       q    Type
REMARK                         _______ _______ _______ _____ _____    ______ ____
ROOT
ATOM      1  C   UNL     1     -46.030  -5.722 -26.962  0.00  0.00    +0.000 C 
ATOM      2  C   UNL     1     -45.098  -6.935 -26.844  0.00  0.00    +0.000 C 
ATOM      3  C   UNL     1     -45.621  -7.648 -25.661  0.00  0.00    +0.000 C 
ATOM      4  C   UNL     1     -47.595  -7.616 -24.072  0.00  0.00    +0.000 C 
ATOM      5  C   UNL     1     -47.109  -5.851 -25.870  0.00  0.00    +0.000 C 
ATOM      6  N   UNL     1     -46.743  -7.015 -25.085  0.00  0.00    +0.000 N 
ATOM      7  O   UNL     1     -45.131  -8.719 -25.217  0.00  0.00    +0.000 OA
ENDROOT
BRANCH   5   8
ATOM      8  C   UNL     1     -47.161  -4.619 -25.019  0.00  0.00    +0.000 A 
ATOM      9  C   UNL     1     -46.988  -4.739 -23.637  0.00  0.00    +0.000 A 
ATOM     10  C   UNL     1     -47.032  -3.605 -22.820  0.00  0.00    +0.000 A 
ATOM     11  C   UNL     1     -47.252  -2.345 -23.386  0.00  0.00    +0.000 A 
ATOM     12  C   UNL     1     -47.300  -1.140 -22.519  0.00  0.00    +0.000 C 
ATOM     13  C   UNL     1     -47.426  -2.219 -24.766  0.00  0.00    +0.000 A 
ATOM     14  C   UNL     1     -47.381  -3.352 -25.583  0.00  0.00    +0.000 A 
ENDBRANCH   5   8
BRANCH   1  15
ATOM     15  C   UNL     1     -46.656  -5.667 -28.316  0.00  0.00    +0.000 C 
ATOM     16  N   UNL     1     -47.145  -4.426 -28.831  0.00  0.00    +0.000 NA
ATOM     17  O   UNL     1     -46.748  -6.721 -28.997  0.00  0.00    +0.000 OA
BRANCH  16  18
ATOM     18  C   UNL     1     -47.756  -4.324 -30.146  0.00  0.00    +0.000 C 
BRANCH  18  23
ATOM     19  C   UNL     1     -44.397  -1.174 -31.841  0.00  0.00    +0.000 C 
ATOM     20  C   UNL     1     -45.378  -2.291 -31.813  0.00  0.00    +0.000 A 
ATOM     21  C   UNL     1     -45.700  -3.091 -32.891  0.00  0.00    +0.000 A 
ATOM     22  C   UNL     1     -46.647  -3.984 -32.412  0.00  0.00    +0.000 A 
ATOM     23  C   UNL     1     -46.816  -3.652 -31.081  0.00  0.00    +0.000 A 
ATOM     24  O   UNL     1     -46.054  -2.642 -30.750  0.00  0.00    +0.000 OA
ENDBRANCH  18  23
ENDBRANCH  16  18
ENDBRANCH   1  15
TORSDOF 4
ENDMDL
MODEL 2
REMARK VINA RESULT:      -6.7      2.426      6.860
REMARK  Name = ZINC000096181390
REMARK  4 active torsions:
REMARK  status: ('A' for Active; 'I' for Inactive)
REMARK    1  A    between atoms: C_5  and  C_6
REMARK    2  A    between atoms: C_6  and  N_20
REMARK    3  A    between atoms: C_7  and  C_8
REMARK    4  A    between atoms: C_12  and  C_13
REMARK                            x       y       z     vdW  Elec       q    Type
REMARK                         _______ _______ _______ _____ _____    ______ ____
ROOT
ATOM      1  C   UNL     1     -46.935  -6.322 -30.442  0.00  0.00    +0.000 C 
ATOM      2  C   UNL     1     -47.678  -7.384 -31.264  0.00  0.00    +0.000 C 
ATOM      3  C   UNL     1     -46.701  -7.742 -32.311  0.00  0.00    +0.000 C 
ATOM      4  C   UNL     1     -44.275  -7.362 -32.938  0.00  0.00    +0.000 C 
ATOM      5  C   UNL     1     -45.515  -6.187 -31.023  0.00  0.00    +0.000 C 
ATOM      6  N   UNL     1     -45.484  -7.038 -32.198  0.00  0.00    +0.000 N 
ATOM      7  O   UNL     1     -46.920  -8.600 -33.207  0.00  0.00    +0.000 OA
ENDROOT
BRANCH   5   8
ATOM      8  C   UNL     1     -45.214  -4.763 -31.380  0.00  0.00    +0.000 A 
ATOM      9  C   UNL     1     -43.883  -4.339 -31.426  0.00  0.00    +0.000 A 
ATOM     10  C   UNL     1     -43.576  -3.015 -31.756  0.00  0.00    +0.000 A 
ATOM     11  C   UNL     1     -44.603  -2.110 -32.039  0.00  0.00    +0.000 A 
ATOM     12  C   UNL     1     -44.278  -0.703 -32.390  0.00  0.00    +0.000 C 
ATOM     13  C   UNL     1     -45.936  -2.527 -31.995  0.00  0.00    +0.000 A 
ATOM     14  C   UNL     1     -46.243  -3.851 -31.665  0.00  0.00    +0.000 A 
ENDBRANCH   5   8
BRANCH   1  15
ATOM     15  C   UNL     1     -46.879  -6.712 -29.002  0.00  0.00    +0.000 C 
ATOM     16  N   UNL     1     -46.672  -5.718 -27.996  0.00  0.00    +0.000 NA
ATOM     17  O   UNL     1     -47.016  -7.923 -28.685  0.00  0.00    +0.000 OA
BRANCH  16  18
ATOM     18  C   UNL     1     -46.615  -6.052 -26.582  0.00  0.00    +0.000 C 
BRANCH  18  23
ATOM     19  C   UNL     1     -47.592  -1.374 -25.463  0.00  0.00    +0.000 C 
ATOM     20  C   UNL     1     -47.331  -2.828 -25.292  0.00  0.00    +0.000 A 
ATOM     21  C   UNL     1     -47.290  -3.489 -24.080  0.00  0.00    +0.000 A 
ATOM     22  C   UNL     1     -47.018  -4.812 -24.396  0.00  0.00    +0.000 A 
ATOM     23  C   UNL     1     -46.921  -4.842 -25.774  0.00  0.00    +0.000 A 
ATOM     24  O   UNL     1     -47.107  -3.652 -26.283  0.00  0.00    +0.000 OA
ENDBRANCH  18  23
ENDBRANCH  16  18
ENDBRANCH   1  15
TORSDOF 4
ENDMDL
MODEL 3
REMARK VINA RESULT:      -6.6      9.844     13.865
REMARK  Name = ZINC000096181390
REMARK  4 active torsions:
REMARK  status: ('A' for Active; 'I' for Inactive)
REMARK    1  A    between atoms: C_5  and  C_6
REMARK    2  A    between atoms: C_6  and  N_20
REMARK    3  A    between atoms: C_7  and  C_8
REMARK    4  A    between atoms: C_12  and  C_13
REMARK                            x       y       z     vdW  Elec       q    Type
REMARK                         _______ _______ _______ _____ _____    ______ ____
ROOT
ATOM      1  C   UNL     1     -45.817 -16.286 -25.130  0.00  0.00    +0.000 C 
ATOM      2  C   UNL     1     -46.011 -17.807 -25.073  0.00  0.00    +0.000 C 
ATOM      3  C   UNL     1     -44.919 -18.318 -25.923  0.00  0.00    +0.000 C 
ATOM      4  C   UNL     1     -42.834 -17.519 -27.123  0.00  0.00    +0.000 C 
ATOM      5  C   UNL     1     -44.549 -16.006 -25.959  0.00  0.00    +0.000 C 
ATOM      6  N   UNL     1     -44.107 -17.295 -26.457  0.00  0.00    +0.000 N 
ATOM      7  O   UNL     1     -44.717 -19.542 -26.141  0.00  0.00    +0.000 OA
ENDROOT
BRANCH   5   8
ATOM      8  C   UNL     1     -44.842 -15.063 -27.087  0.00  0.00    +0.000 A 
ATOM      9  C   UNL     1     -45.951 -14.216 -26.995  0.00  0.00    +0.000 A 
ATOM     10  C   UNL     1     -46.246 -13.328 -28.034  0.00  0.00    +0.000 A 
ATOM     11  C   UNL     1     -45.432 -13.286 -29.170  0.00  0.00    +0.000 A 
ATOM     12  C   UNL     1     -45.745 -12.343 -30.274  0.00  0.00    +0.000 C 
ATOM     13  C   UNL     1     -44.323 -14.131 -29.268  0.00  0.00    +0.000 A 
ATOM     14  C   UNL     1     -44.027 -15.019 -28.229  0.00  0.00    +0.000 A 
ENDBRANCH   5   8
BRANCH   1  15
ATOM     15  C   UNL     1     -45.683 -15.718 -23.756  0.00  0.00    +0.000 C 
ATOM     16  N   UNL     1     -44.565 -16.072 -22.938  0.00  0.00    +0.000 NA
ATOM     17  O   UNL     1     -46.563 -14.926 -23.328  0.00  0.00    +0.000 OA
BRANCH  16  18
ATOM     18  C   UNL     1     -44.392 -15.539 -21.597  0.00  0.00    +0.000 C 
BRANCH  18  23
ATOM     19  C   UNL     1     -46.644 -19.361 -19.499  0.00  0.00    +0.000 C 
ATOM     20  C   UNL     1     -46.195 -17.966 -19.744  0.00  0.00    +0.000 A 
ATOM     21  C   UNL     1     -46.550 -16.872 -18.979  0.00  0.00    +0.000 A 
ATOM     22  C   UNL     1     -45.910 -15.792 -19.569  0.00  0.00    +0.000 A 
ATOM     23  C   UNL     1     -45.218 -16.323 -20.641  0.00  0.00    +0.000 A 
ATOM     24  O   UNL     1     -45.406 -17.614 -20.727  0.00  0.00    +0.000 OA
ENDBRANCH  18  23
ENDBRANCH  16  18
ENDBRANCH   1  15
TORSDOF 4
ENDMDL
