MODEL 1
REMARK VINA RESULT:      -6.1      0.000      0.000
REMARK  Name = ZINC000072242290 ZINC72242290 PubChem-95740501
REMARK  4 active torsions:
REMARK  status: ('A' for Active; 'I' for Inactive)
REMARK    1  A    between atoms: C_5  and  C_6
REMARK    2  A    between atoms: C_6  and  N_22
REMARK    3  A    between atoms: C_7  and  C_8
REMARK    4  A    between atoms: C_11  and  C_12
REMARK                            x       y       z     vdW  Elec       q    Type
REMARK                         _______ _______ _______ _____ _____    ______ ____
ROOT
ATOM      1  C   UNL     1     -46.364  -3.804 -32.097  0.00  0.00    +0.000 C 
ATOM      2  C   UNL     1     -47.340  -4.401 -33.120  0.00  0.00    +0.000 C 
ATOM      3  C   UNL     1     -46.448  -5.080 -34.080  0.00  0.00    +0.000 C 
ATOM      4  C   UNL     1     -44.943  -4.251 -32.489  0.00  0.00    +0.000 C 
ATOM      5  C   UNL     1     -44.013  -5.724 -34.376  0.00  0.00    +0.000 C 
ATOM      6  O   UNL     1     -46.857  -5.698 -35.097  0.00  0.00    +0.000 OA
ATOM      7  N   UNL     1     -45.082  -4.969 -33.742  0.00  0.00    +0.000 N 
ENDROOT
BRANCH   4   8
ATOM      8  C   UNL     1     -44.033  -3.070 -32.639  0.00  0.00    +0.000 A 
ATOM      9  C   UNL     1     -42.693  -3.191 -32.255  0.00  0.00    +0.000 A 
ATOM     10  C   UNL     1     -41.823  -2.103 -32.387  0.00  0.00    +0.000 A 
ATOM     11  C   UNL     1     -42.292  -0.891 -32.903  0.00  0.00    +0.000 A 
ATOM     12  C   UNL     1     -43.630  -0.766 -33.287  0.00  0.00    +0.000 A 
ATOM     13  C   UNL     1     -44.500  -1.852 -33.155  0.00  0.00    +0.000 A 
ATOM     14  F   UNL     1     -41.447   0.158 -33.036  0.00  0.00    +0.000 F 
ENDBRANCH   4   8
BRANCH   1  15
ATOM     15  C   UNL     1     -46.692  -4.265 -30.716  0.00  0.00    +0.000 C 
ATOM     16  O   UNL     1     -46.949  -3.410 -29.826  0.00  0.00    +0.000 OA
ATOM     17  N   UNL     1     -46.702  -5.660 -30.405  0.00  0.00    +0.000 NA
BRANCH  17  18
ATOM     18  C   UNL     1     -47.003  -6.150 -29.070  0.00  0.00    +0.000 C 
BRANCH  18  23
ATOM     19  C   UNL     1     -42.198  -6.585 -28.156  0.00  0.00    +0.000 C 
ATOM     20  C   UNL     1     -43.669  -6.589 -27.939  0.00  0.00    +0.000 A 
ATOM     21  C   UNL     1     -44.295  -6.909 -26.749  0.00  0.00    +0.000 A 
ATOM     22  C   UNL     1     -45.652  -6.784 -27.009  0.00  0.00    +0.000 A 
ATOM     23  C   UNL     1     -45.735  -6.393 -28.331  0.00  0.00    +0.000 A 
ATOM     24  O   UNL     1     -44.544  -6.288 -28.864  0.00  0.00    +0.000 OA
ENDBRANCH  18  23
ENDBRANCH  17  18
ENDBRANCH   1  15
TORSDOF 4
ENDMDL
MODEL 2
REMARK VINA RESULT:      -6.1      1.676      2.309
REMARK  Name = ZINC000072242290 ZINC72242290 PubChem-95740501
REMARK  4 active torsions:
REMARK  status: ('A' for Active; 'I' for Inactive)
REMARK    1  A    between atoms: C_5  and  C_6
REMARK    2  A    between atoms: C_6  and  N_22
REMARK    3  A    between atoms: C_7  and  C_8
REMARK    4  A    between atoms: C_11  and  C_12
REMARK                            x       y       z     vdW  Elec       q    Type
REMARK                         _______ _______ _______ _____ _____    ______ ____
ROOT
ATOM      1  C   UNL     1     -46.313  -3.693 -31.995  0.00  0.00    +0.000 C 
ATOM      2  C   UNL     1     -47.340  -4.221 -33.005  0.00  0.00    +0.000 C 
ATOM      3  C   UNL     1     -46.502  -4.900 -34.013  0.00  0.00    +0.000 C 
ATOM      4  C   UNL     1     -44.922  -4.177 -32.444  0.00  0.00    +0.000 C 
ATOM      5  C   UNL     1     -44.101  -5.620 -34.403  0.00  0.00    +0.000 C 
ATOM      6  O   UNL     1     -46.963  -5.470 -35.036  0.00  0.00    +0.000 OA
ATOM      7  N   UNL     1     -45.124  -4.848 -33.714  0.00  0.00    +0.000 N 
ENDROOT
BRANCH   4   8
ATOM      8  C   UNL     1     -43.973  -3.025 -32.585  0.00  0.00    +0.000 A 
ATOM      9  C   UNL     1     -44.447  -1.812 -33.097  0.00  0.00    +0.000 A 
ATOM     10  C   UNL     1     -43.581  -0.722 -33.236  0.00  0.00    +0.000 A 
ATOM     11  C   UNL     1     -42.240  -0.842 -32.862  0.00  0.00    +0.000 A 
ATOM     12  C   UNL     1     -41.762  -2.052 -32.352  0.00  0.00    +0.000 A 
ATOM     13  C   UNL     1     -42.625  -3.142 -32.213  0.00  0.00    +0.000 A 
ATOM     14  F   UNL     1     -41.406   0.216 -32.991  0.00  0.00    +0.000 F 
ENDBRANCH   4   8
BRANCH   1  15
ATOM     15  C   UNL     1     -46.616  -4.185 -30.619  0.00  0.00    +0.000 C 
ATOM     16  O   UNL     1     -46.758  -3.352 -29.684  0.00  0.00    +0.000 OA
ATOM     17  N   UNL     1     -46.732  -5.587 -30.365  0.00  0.00    +0.000 NA
BRANCH  17  18
ATOM     18  C   UNL     1     -47.014  -6.109 -29.038  0.00  0.00    +0.000 C 
BRANCH  18  23
ATOM     19  C   UNL     1     -46.115 -10.761 -27.747  0.00  0.00    +0.000 C 
ATOM     20  C   UNL     1     -46.614  -9.597 -28.526  0.00  0.00    +0.000 A 
ATOM     21  C   UNL     1     -47.310  -9.679 -29.717  0.00  0.00    +0.000 A 
ATOM     22  C   UNL     1     -47.564  -8.365 -30.080  0.00  0.00    +0.000 A 
ATOM     23  C   UNL     1     -47.007  -7.596 -29.076  0.00  0.00    +0.000 A 
ATOM     24  O   UNL     1     -46.445  -8.350 -28.166  0.00  0.00    +0.000 OA
ENDBRANCH  18  23
ENDBRANCH  17  18
ENDBRANCH   1  15
TORSDOF 4
ENDMDL
MODEL 3
REMARK VINA RESULT:      -6.0      3.158      6.673
REMARK  Name = ZINC000072242290 ZINC72242290 PubChem-95740501
REMARK  4 active torsions:
REMARK  status: ('A' for Active; 'I' for Inactive)
REMARK    1  A    between atoms: C_5  and  C_6
REMARK    2  A    between atoms: C_6  and  N_22
REMARK    3  A    between atoms: C_7  and  C_8
REMARK    4  A    between atoms: C_11  and  C_12
REMARK                            x       y       z     vdW  Elec       q    Type
REMARK                         _______ _______ _______ _____ _____    ______ ____
ROOT
ATOM      1  C   UNL     1     -44.904  -5.763 -29.872  0.00  0.00    +0.000 C 
ATOM      2  C   UNL     1     -44.075  -7.039 -30.074  0.00  0.00    +0.000 C 
ATOM      3  C   UNL     1     -44.989  -8.108 -29.626  0.00  0.00    +0.000 C 
ATOM      4  C   UNL     1     -46.304  -6.185 -29.388  0.00  0.00    +0.000 C 
ATOM      5  C   UNL     1     -47.404  -8.460 -28.933  0.00  0.00    +0.000 C 
ATOM      6  O   UNL     1     -44.686  -9.329 -29.620  0.00  0.00    +0.000 OA
ATOM      7  N   UNL     1     -46.246  -7.623 -29.205  0.00  0.00    +0.000 N 
ENDROOT
BRANCH   4   8
ATOM      8  C   UNL     1     -46.660  -5.489 -28.109  0.00  0.00    +0.000 A 
ATOM      9  C   UNL     1     -46.248  -6.046 -26.894  0.00  0.00    +0.000 A 
ATOM     10  C   UNL     1     -46.567  -5.414 -25.687  0.00  0.00    +0.000 A 
ATOM     11  C   UNL     1     -47.299  -4.223 -25.693  0.00  0.00    +0.000 A 
ATOM     12  C   UNL     1     -47.714  -3.663 -26.905  0.00  0.00    +0.000 A 
ATOM     13  C   UNL     1     -47.396  -4.294 -28.112  0.00  0.00    +0.000 A 
ATOM     14  F   UNL     1     -47.600  -3.610 -24.525  0.00  0.00    +0.000 F 
ENDBRANCH   4   8
BRANCH   1  15
ATOM     15  C   UNL     1     -45.005  -4.986 -31.143  0.00  0.00    +0.000 C 
ATOM     16  O   UNL     1     -46.108  -4.465 -31.461  0.00  0.00    +0.000 OA
ATOM     17  N   UNL     1     -43.865  -4.846 -31.994  0.00  0.00    +0.000 NA
BRANCH  17  18
ATOM     18  C   UNL     1     -43.924  -4.108 -33.245  0.00  0.00    +0.000 C 
BRANCH  18  23
ATOM     19  C   UNL     1     -41.252  -0.183 -31.993  0.00  0.00    +0.000 C 
ATOM     20  C   UNL     1     -42.403  -1.001 -32.458  0.00  0.00    +0.000 A 
ATOM     21  C   UNL     1     -43.637  -0.498 -32.824  0.00  0.00    +0.000 A 
ATOM     22  C   UNL     1     -44.390  -1.607 -33.178  0.00  0.00    +0.000 A 
ATOM     23  C   UNL     1     -43.549  -2.689 -33.005  0.00  0.00    +0.000 A 
ATOM     24  O   UNL     1     -42.375  -2.304 -32.572  0.00  0.00    +0.000 OA
ENDBRANCH  18  23
ENDBRANCH  17  18
ENDBRANCH   1  15
TORSDOF 4
ENDMDL
