MODEL 1
REMARK VINA RESULT:      -6.1      0.000      0.000
REMARK  Name = ZINC000072242289 ZINC72242289 PubChem-95740500
REMARK  4 active torsions:
REMARK  status: ('A' for Active; 'I' for Inactive)
REMARK    1  A    between atoms: C_5  and  C_6
REMARK    2  A    between atoms: C_6  and  N_22
REMARK    3  A    between atoms: C_7  and  C_8
REMARK    4  A    between atoms: C_11  and  C_12
REMARK                            x       y       z     vdW  Elec       q    Type
REMARK                         _______ _______ _______ _____ _____    ______ ____
ROOT
ATOM      1  C   UNL     1     -46.426  -3.846 -32.091  0.00  0.00    +0.000 C 
ATOM      2  C   UNL     1     -47.382  -4.437 -33.136  0.00  0.00    +0.000 C 
ATOM      3  C   UNL     1     -46.469  -5.093 -34.094  0.00  0.00    +0.000 C 
ATOM      4  C   UNL     1     -44.995  -4.275 -32.469  0.00  0.00    +0.000 C 
ATOM      5  C   UNL     1     -44.027  -5.717 -34.358  0.00  0.00    +0.000 C 
ATOM      6  O   UNL     1     -46.860  -5.712 -35.118  0.00  0.00    +0.000 OA
ATOM      7  N   UNL     1     -45.110  -4.973 -33.736  0.00  0.00    +0.000 N 
ENDROOT
BRANCH   4   8
ATOM      8  C   UNL     1     -44.092  -3.085 -32.588  0.00  0.00    +0.000 A 
ATOM      9  C   UNL     1     -44.551  -1.875 -33.130  0.00  0.00    +0.000 A 
ATOM     10  C   UNL     1     -43.689  -0.779 -33.229  0.00  0.00    +0.000 A 
ATOM     11  C   UNL     1     -42.367  -0.887 -32.788  0.00  0.00    +0.000 A 
ATOM     12  C   UNL     1     -41.907  -2.092 -32.247  0.00  0.00    +0.000 A 
ATOM     13  C   UNL     1     -42.768  -3.188 -32.148  0.00  0.00    +0.000 A 
ATOM     14  F   UNL     1     -41.532   0.175 -32.883  0.00  0.00    +0.000 F 
ENDBRANCH   4   8
BRANCH   1  15
ATOM     15  C   UNL     1     -46.776  -4.331 -30.723  0.00  0.00    +0.000 C 
ATOM     16  O   UNL     1     -47.134  -3.499 -29.847  0.00  0.00    +0.000 OA
ATOM     17  N   UNL     1     -46.702  -5.723 -30.412  0.00  0.00    +0.000 NA
BRANCH  17  18
ATOM     18  C   UNL     1     -47.028  -6.238 -29.092  0.00  0.00    +0.000 C 
BRANCH  18  23
ATOM     19  C   UNL     1     -42.244  -6.528 -28.036  0.00  0.00    +0.000 C 
ATOM     20  C   UNL     1     -43.720  -6.564 -27.858  0.00  0.00    +0.000 A 
ATOM     21  C   UNL     1     -44.370  -6.870 -26.679  0.00  0.00    +0.000 A 
ATOM     22  C   UNL     1     -45.722  -6.784 -26.976  0.00  0.00    +0.000 A 
ATOM     23  C   UNL     1     -45.777  -6.429 -28.310  0.00  0.00    +0.000 A 
ATOM     24  O   UNL     1     -44.576  -6.308 -28.813  0.00  0.00    +0.000 OA
ENDBRANCH  18  23
ENDBRANCH  17  18
ENDBRANCH   1  15
TORSDOF 4
ENDMDL
MODEL 2
REMARK VINA RESULT:      -6.0      3.577      6.831
REMARK  Name = ZINC000072242289 ZINC72242289 PubChem-95740500
REMARK  4 active torsions:
REMARK  status: ('A' for Active; 'I' for Inactive)
REMARK    1  A    between atoms: C_5  and  C_6
REMARK    2  A    between atoms: C_6  and  N_22
REMARK    3  A    between atoms: C_7  and  C_8
REMARK    4  A    between atoms: C_11  and  C_12
REMARK                            x       y       z     vdW  Elec       q    Type
REMARK                         _______ _______ _______ _____ _____    ______ ____
ROOT
ATOM      1  C   UNL     1     -46.703  -5.454 -31.822  0.00  0.00    +0.000 C 
ATOM      2  C   UNL     1     -47.584  -4.403 -31.134  0.00  0.00    +0.000 C 
ATOM      3  C   UNL     1     -47.246  -4.562 -29.705  0.00  0.00    +0.000 C 
ATOM      4  C   UNL     1     -45.831  -6.116 -30.738  0.00  0.00    +0.000 C 
ATOM      5  C   UNL     1     -45.588  -5.761 -28.209  0.00  0.00    +0.000 C 
ATOM      6  O   UNL     1     -47.756  -3.871 -28.786  0.00  0.00    +0.000 OA
ATOM      7  N   UNL     1     -46.274  -5.559 -29.474  0.00  0.00    +0.000 N 
ENDROOT
BRANCH   4   8
ATOM      8  C   UNL     1     -45.988  -7.606 -30.758  0.00  0.00    +0.000 A 
ATOM      9  C   UNL     1     -47.244  -8.207 -30.583  0.00  0.00    +0.000 A 
ATOM     10  C   UNL     1     -47.365  -9.599 -30.607  0.00  0.00    +0.000 A 
ATOM     11  C   UNL     1     -46.234 -10.396 -30.804  0.00  0.00    +0.000 A 
ATOM     12  C   UNL     1     -44.981  -9.800 -30.978  0.00  0.00    +0.000 A 
ATOM     13  C   UNL     1     -44.859  -8.408 -30.955  0.00  0.00    +0.000 A 
ATOM     14  F   UNL     1     -46.351 -11.745 -30.827  0.00  0.00    +0.000 F 
ENDBRANCH   4   8
BRANCH   1  15
ATOM     15  C   UNL     1     -45.850  -4.823 -32.872  0.00  0.00    +0.000 C 
ATOM     16  O   UNL     1     -46.374  -4.468 -33.962  0.00  0.00    +0.000 OA
ATOM     17  N   UNL     1     -44.454  -4.626 -32.642  0.00  0.00    +0.000 NA
BRANCH  17  18
ATOM     18  C   UNL     1     -43.586  -4.021 -33.638  0.00  0.00    +0.000 C 
BRANCH  18  23
ATOM     19  C   UNL     1     -41.132  -0.102 -31.991  0.00  0.00    +0.000 C 
ATOM     20  C   UNL     1     -42.240  -0.931 -32.534  0.00  0.00    +0.000 A 
ATOM     21  C   UNL     1     -43.505  -0.465 -32.836  0.00  0.00    +0.000 A 
ATOM     22  C   UNL     1     -44.197  -1.571 -33.305  0.00  0.00    +0.000 A 
ATOM     23  C   UNL     1     -43.292  -2.614 -33.252  0.00  0.00    +0.000 A 
ATOM     24  O   UNL     1     -42.138  -2.210 -32.787  0.00  0.00    +0.000 OA
ENDBRANCH  18  23
ENDBRANCH  17  18
ENDBRANCH   1  15
TORSDOF 4
ENDMDL
MODEL 3
REMARK VINA RESULT:      -6.0     10.704     13.548
REMARK  Name = ZINC000072242289 ZINC72242289 PubChem-95740500
REMARK  4 active torsions:
REMARK  status: ('A' for Active; 'I' for Inactive)
REMARK    1  A    between atoms: C_5  and  C_6
REMARK    2  A    between atoms: C_6  and  N_22
REMARK    3  A    between atoms: C_7  and  C_8
REMARK    4  A    between atoms: C_11  and  C_12
REMARK                            x       y       z     vdW  Elec       q    Type
REMARK                         _______ _______ _______ _____ _____    ______ ____
ROOT
ATOM      1  C   UNL     1     -45.990 -15.979 -25.039  0.00  0.00    +0.000 C 
ATOM      2  C   UNL     1     -45.957 -17.512 -25.092  0.00  0.00    +0.000 C 
ATOM      3  C   UNL     1     -44.888 -17.793 -26.071  0.00  0.00    +0.000 C 
ATOM      4  C   UNL     1     -44.861 -15.455 -25.946  0.00  0.00    +0.000 C 
ATOM      5  C   UNL     1     -43.065 -16.606 -27.371  0.00  0.00    +0.000 C 
ATOM      6  O   UNL     1     -44.535 -18.954 -26.405  0.00  0.00    +0.000 OA
ATOM      7  N   UNL     1     -44.287 -16.624 -26.584  0.00  0.00    +0.000 N 
ENDROOT
BRANCH   4   8
ATOM      8  C   UNL     1     -45.393 -14.491 -26.963  0.00  0.00    +0.000 A 
ATOM      9  C   UNL     1     -46.316 -13.496 -26.608  0.00  0.00    +0.000 A 
ATOM     10  C   UNL     1     -46.796 -12.607 -27.574  0.00  0.00    +0.000 A 
ATOM     11  C   UNL     1     -46.358 -12.709 -28.897  0.00  0.00    +0.000 A 
ATOM     12  C   UNL     1     -45.438 -13.700 -29.254  0.00  0.00    +0.000 A 
ATOM     13  C   UNL     1     -44.957 -14.589 -28.288  0.00  0.00    +0.000 A 
ATOM     14  F   UNL     1     -46.823 -11.849 -29.834  0.00  0.00    +0.000 F 
ENDBRANCH   4   8
BRANCH   1  15
ATOM     15  C   UNL     1     -45.807 -15.496 -23.638  0.00  0.00    +0.000 C 
ATOM     16  O   UNL     1     -46.650 -14.699 -23.146  0.00  0.00    +0.000 OA
ATOM     17  N   UNL     1     -44.685 -15.931 -22.867  0.00  0.00    +0.000 NA
BRANCH  17  18
ATOM     18  C   UNL     1     -44.466 -15.481 -21.503  0.00  0.00    +0.000 C 
BRANCH  18  23
ATOM     19  C   UNL     1     -46.609 -19.404 -19.477  0.00  0.00    +0.000 C 
ATOM     20  C   UNL     1     -46.214 -17.990 -19.706  0.00  0.00    +0.000 A 
ATOM     21  C   UNL     1     -46.634 -16.915 -18.947  0.00  0.00    +0.000 A 
ATOM     22  C   UNL     1     -46.026 -15.807 -19.517  0.00  0.00    +0.000 A 
ATOM     23  C   UNL     1     -45.283 -16.304 -20.571  0.00  0.00    +0.000 A 
ATOM     24  O   UNL     1     -45.414 -17.601 -20.666  0.00  0.00    +0.000 OA
ENDBRANCH  18  23
ENDBRANCH  17  18
ENDBRANCH   1  15
TORSDOF 4
ENDMDL
