MODEL 1
REMARK VINA RESULT:      -6.8      0.000      0.000
REMARK  Name = ZINC000020530876 ZINC20530876 PubChem-92688294
REMARK  7 active torsions:
REMARK  status: ('A' for Active; 'I' for Inactive)
REMARK    1  A    between atoms: C_2  and  O_23
REMARK    2  A    between atoms: C_5  and  C_9
REMARK    3  A    between atoms: C_7  and  O_24
REMARK    4  A    between atoms: C_11  and  C_14
REMARK    5  A    between atoms: C_17  and  O_29
REMARK    6  A    between atoms: C_18  and  O_28
REMARK    7  A    between atoms: C_19  and  O_27
REMARK                            x       y       z     vdW  Elec       q    Type
REMARK                         _______ _______ _______ _____ _____    ______ ____
ROOT
ATOM      1  C   UNL     1     -47.178  -3.763 -26.399  0.00  0.00    +0.000 C 
ATOM      2  C   UNL     1     -46.589  -5.549 -28.129  0.00  0.00    +0.000 C 
ATOM      3  C   UNL     1     -46.634  -5.167 -30.542  0.00  0.00    +0.000 C 
ATOM      4  C   UNL     1     -46.804  -6.675 -30.778  0.00  0.00    +0.000 C 
ATOM      5  C   UNL     1     -46.217  -7.465 -29.651  0.00  0.00    +0.000 C 
ATOM      6  O   UNL     1     -47.535  -2.925 -27.271  0.00  0.00    +0.000 OA
ATOM      7  O   UNL     1     -45.798  -8.634 -29.850  0.00  0.00    +0.000 OA
ATOM      8  N   UNL     1     -46.739  -5.075 -26.786  0.00  0.00    +0.000 NA
ATOM      9  N   UNL     1     -46.853  -4.778 -29.144  0.00  0.00    +0.000 NA
ATOM     10  N   UNL     1     -46.160  -6.895 -28.344  0.00  0.00    +0.000 NA
ENDROOT
BRANCH   1  14
ATOM     11  C   UNL     1     -47.243  -2.695 -22.246  0.00  0.00    +0.000 A 
ATOM     12  C   UNL     1     -47.321  -1.703 -23.238  0.00  0.00    +0.000 A 
ATOM     13  C   UNL     1     -47.304  -2.051 -24.590  0.00  0.00    +0.000 A 
ATOM     14  C   UNL     1     -47.208  -3.394 -24.973  0.00  0.00    +0.000 A 
ATOM     15  C   UNL     1     -47.130  -4.383 -23.985  0.00  0.00    +0.000 A 
ATOM     16  C   UNL     1     -47.146  -4.044 -22.624  0.00  0.00    +0.000 A 
BRANCH  11  18
ATOM     17  C   UNL     1     -46.156  -1.749 -20.233  0.00  0.00    +0.000 C 
ATOM     18  O   UNL     1     -47.257  -2.364 -20.887  0.00  0.00    +0.000 OA
ENDBRANCH  11  18
BRANCH  16  20
ATOM     19  C   UNL     1     -45.832  -5.573 -21.187  0.00  0.00    +0.000 C 
ATOM     20  O   UNL     1     -47.066  -5.027 -21.630  0.00  0.00    +0.000 OA
ENDBRANCH  16  20
ENDBRANCH   1  14
BRANCH   3  21
ATOM     21  C   UNL     1     -45.314  -4.649 -31.048  0.00  0.00    +0.000 A 
ATOM     22  C   UNL     1     -44.148  -5.290 -30.615  0.00  0.00    +0.000 A 
ATOM     23  C   UNL     1     -42.901  -4.889 -31.076  0.00  0.00    +0.000 A 
ATOM     24  C   UNL     1     -42.789  -3.838 -31.988  0.00  0.00    +0.000 A 
ATOM     25  C   UNL     1     -43.939  -3.170 -32.439  0.00  0.00    +0.000 A 
ATOM     26  C   UNL     1     -45.222  -3.557 -31.956  0.00  0.00    +0.000 A 
BRANCH  26  28
ATOM     27  C   UNL     1     -47.072  -3.118 -33.601  0.00  0.00    +0.000 C 
ATOM     28  O   UNL     1     -46.349  -2.849 -32.409  0.00  0.00    +0.000 OA
ENDBRANCH  26  28
BRANCH  25  30
ATOM     29  C   UNL     1     -43.657  -0.746 -33.042  0.00  0.00    +0.000 C 
ATOM     30  O   UNL     1     -43.741  -2.127 -33.361  0.00  0.00    +0.000 OA
ENDBRANCH  25  30
BRANCH  24  32
ATOM     31  C   UNL     1     -40.836  -4.146 -33.481  0.00  0.00    +0.000 C 
ATOM     32  O   UNL     1     -41.537  -3.436 -32.468  0.00  0.00    +0.000 OA
ENDBRANCH  24  32
ENDBRANCH   3  21
TORSDOF 7
ENDMDL
MODEL 2
REMARK VINA RESULT:      -6.3     10.479     15.103
REMARK  Name = ZINC000020530876 ZINC20530876 PubChem-92688294
REMARK  7 active torsions:
REMARK  status: ('A' for Active; 'I' for Inactive)
REMARK    1  A    between atoms: C_2  and  O_23
REMARK    2  A    between atoms: C_5  and  C_9
REMARK    3  A    between atoms: C_7  and  O_24
REMARK    4  A    between atoms: C_11  and  C_14
REMARK    5  A    between atoms: C_17  and  O_29
REMARK    6  A    between atoms: C_18  and  O_28
REMARK    7  A    between atoms: C_19  and  O_27
REMARK                            x       y       z     vdW  Elec       q    Type
REMARK                         _______ _______ _______ _____ _____    ______ ____
ROOT
ATOM      1  C   UNL     1     -44.531 -14.515 -26.317  0.00  0.00    +0.000 C 
ATOM      2  C   UNL     1     -44.722 -16.985 -25.688  0.00  0.00    +0.000 C 
ATOM      3  C   UNL     1     -43.461 -18.022 -23.870  0.00  0.00    +0.000 C 
ATOM      4  C   UNL     1     -43.629 -19.395 -24.538  0.00  0.00    +0.000 C 
ATOM      5  C   UNL     1     -44.864 -19.436 -25.381  0.00  0.00    +0.000 C 
ATOM      6  O   UNL     1     -43.593 -14.300 -25.501  0.00  0.00    +0.000 OA
ATOM      7  O   UNL     1     -45.450 -20.529 -25.591  0.00  0.00    +0.000 OA
ATOM      8  N   UNL     1     -45.086 -15.832 -26.457  0.00  0.00    +0.000 NA
ATOM      9  N   UNL     1     -43.815 -16.908 -24.756  0.00  0.00    +0.000 NA
ATOM     10  N   UNL     1     -45.358 -18.233 -25.968  0.00  0.00    +0.000 NA
ENDROOT
BRANCH   1  14
ATOM     11  C   UNL     1     -46.060 -11.292 -28.698  0.00  0.00    +0.000 A 
ATOM     12  C   UNL     1     -46.745 -12.517 -28.631  0.00  0.00    +0.000 A 
ATOM     13  C   UNL     1     -46.250 -13.564 -27.854  0.00  0.00    +0.000 A 
ATOM     14  C   UNL     1     -45.062 -13.408 -27.130  0.00  0.00    +0.000 A 
ATOM     15  C   UNL     1     -44.379 -12.188 -27.194  0.00  0.00    +0.000 A 
ATOM     16  C   UNL     1     -44.868 -11.128 -27.974  0.00  0.00    +0.000 A 
BRANCH  11  18
ATOM     17  C   UNL     1     -46.352 -10.160 -30.879  0.00  0.00    +0.000 C 
ATOM     18  O   UNL     1     -46.541 -10.232 -29.473  0.00  0.00    +0.000 OA
ENDBRANCH  11  18
BRANCH  16  20
ATOM     19  C   UNL     1     -42.987  -9.652 -27.332  0.00  0.00    +0.000 C 
ATOM     20  O   UNL     1     -44.188  -9.907 -28.046  0.00  0.00    +0.000 OA
ENDBRANCH  16  20
ENDBRANCH   1  14
BRANCH   3  21
ATOM     21  C   UNL     1     -44.195 -17.926 -22.559  0.00  0.00    +0.000 A 
ATOM     22  C   UNL     1     -44.956 -16.778 -22.315  0.00  0.00    +0.000 A 
ATOM     23  C   UNL     1     -45.690 -16.645 -21.144  0.00  0.00    +0.000 A 
ATOM     24  C   UNL     1     -45.685 -17.662 -20.187  0.00  0.00    +0.000 A 
ATOM     25  C   UNL     1     -44.928 -18.825 -20.399  0.00  0.00    +0.000 A 
ATOM     26  C   UNL     1     -44.153 -18.963 -21.585  0.00  0.00    +0.000 A 
BRANCH  26  28
ATOM     27  C   UNL     1     -42.031 -20.295 -21.360  0.00  0.00    +0.000 C 
ATOM     28  O   UNL     1     -43.387 -20.130 -21.752  0.00  0.00    +0.000 OA
ENDBRANCH  26  28
BRANCH  25  30
ATOM     29  C   UNL     1     -44.070 -19.928 -18.309  0.00  0.00    +0.000 C 
ATOM     30  O   UNL     1     -44.982 -19.804 -19.390  0.00  0.00    +0.000 OA
ENDBRANCH  25  30
BRANCH  24  32
ATOM     31  C   UNL     1     -47.040 -16.322 -18.604  0.00  0.00    +0.000 C 
ATOM     32  O   UNL     1     -46.433 -17.541 -19.010  0.00  0.00    +0.000 OA
ENDBRANCH  24  32
ENDBRANCH   3  21
TORSDOF 7
ENDMDL
MODEL 3
REMARK VINA RESULT:      -6.1      4.470      5.999
REMARK  Name = ZINC000020530876 ZINC20530876 PubChem-92688294
REMARK  7 active torsions:
REMARK  status: ('A' for Active; 'I' for Inactive)
REMARK    1  A    between atoms: C_2  and  O_23
REMARK    2  A    between atoms: C_5  and  C_9
REMARK    3  A    between atoms: C_7  and  O_24
REMARK    4  A    between atoms: C_11  and  C_14
REMARK    5  A    between atoms: C_17  and  O_29
REMARK    6  A    between atoms: C_18  and  O_28
REMARK    7  A    between atoms: C_19  and  O_27
REMARK                            x       y       z     vdW  Elec       q    Type
REMARK                         _______ _______ _______ _____ _____    ______ ____
ROOT
ATOM      1  C   UNL     1     -46.513  -7.362 -29.162  0.00  0.00    +0.000 C 
ATOM      2  C   UNL     1     -46.556  -6.134 -31.402  0.00  0.00    +0.000 C 
ATOM      3  C   UNL     1     -45.872  -3.805 -31.685  0.00  0.00    +0.000 C 
ATOM      4  C   UNL     1     -46.730  -3.708 -32.955  0.00  0.00    +0.000 C 
ATOM      5  C   UNL     1     -46.890  -5.048 -33.601  0.00  0.00    +0.000 C 
ATOM      6  O   UNL     1     -46.194  -6.329 -28.513  0.00  0.00    +0.000 OA
ATOM      7  O   UNL     1     -47.093  -5.134 -34.839  0.00  0.00    +0.000 OA
ATOM      8  N   UNL     1     -46.731  -7.293 -30.579  0.00  0.00    +0.000 NA
ATOM      9  N   UNL     1     -46.161  -5.004 -30.889  0.00  0.00    +0.000 NA
ATOM     10  N   UNL     1     -46.837  -6.228 -32.800  0.00  0.00    +0.000 NA
ENDROOT
BRANCH   1  14
ATOM     11  C   UNL     1     -46.920 -11.115 -27.127  0.00  0.00    +0.000 A 
ATOM     12  C   UNL     1     -46.979  -9.908 -26.412  0.00  0.00    +0.000 A 
ATOM     13  C   UNL     1     -46.850  -8.686 -27.074  0.00  0.00    +0.000 A 
ATOM     14  C   UNL     1     -46.661  -8.649 -28.461  0.00  0.00    +0.000 A 
ATOM     15  C   UNL     1     -46.603  -9.853 -29.174  0.00  0.00    +0.000 A 
ATOM     16  C   UNL     1     -46.730 -11.086 -28.517  0.00  0.00    +0.000 A 
BRANCH  11  18
ATOM     17  C   UNL     1     -45.966 -12.975 -25.801  0.00  0.00    +0.000 C 
ATOM     18  O   UNL     1     -47.046 -12.349 -26.479  0.00  0.00    +0.000 OA
ENDBRANCH  11  18
BRANCH  16  20
ATOM     19  C   UNL     1     -45.454 -12.839 -29.713  0.00  0.00    +0.000 C 
ATOM     20  O   UNL     1     -46.671 -12.293 -29.224  0.00  0.00    +0.000 OA
ENDBRANCH  16  20
ENDBRANCH   1  14
BRANCH   3  21
ATOM     21  C   UNL     1     -44.399  -3.689 -31.974  0.00  0.00    +0.000 A 
ATOM     22  C   UNL     1     -43.609  -4.835 -31.830  0.00  0.00    +0.000 A 
ATOM     23  C   UNL     1     -42.252  -4.807 -32.121  0.00  0.00    +0.000 A 
ATOM     24  C   UNL     1     -41.650  -3.630 -32.570  0.00  0.00    +0.000 A 
ATOM     25  C   UNL     1     -42.413  -2.461 -32.722  0.00  0.00    +0.000 A 
ATOM     26  C   UNL     1     -43.801  -2.472 -32.405  0.00  0.00    +0.000 A 
BRANCH  26  28
ATOM     27  C   UNL     1     -44.740  -0.311 -31.524  0.00  0.00    +0.000 C 
ATOM     28  O   UNL     1     -44.529  -1.277 -32.544  0.00  0.00    +0.000 OA
ENDBRANCH  26  28
BRANCH  25  30
ATOM     29  C   UNL     1     -41.121  -0.334 -32.369  0.00  0.00    +0.000 C 
ATOM     30  O   UNL     1     -41.733  -1.320 -33.186  0.00  0.00    +0.000 OA
ENDBRANCH  25  30
BRANCH  24  32
ATOM     31  C   UNL     1     -39.389  -4.643 -32.527  0.00  0.00    +0.000 C 
ATOM     32  O   UNL     1     -40.285  -3.596 -32.879  0.00  0.00    +0.000 OA
ENDBRANCH  24  32
ENDBRANCH   3  21
TORSDOF 7
ENDMDL
