MODEL 1
REMARK VINA RESULT:      -5.6      0.000      0.000
REMARK  Name = ZINC000225948475
REMARK  9 active torsions:
REMARK  status: ('A' for Active; 'I' for Inactive)
REMARK    1  A    between atoms: C_3  and  S_21
REMARK    2  A    between atoms: C_4  and  C_5
REMARK    3  A    between atoms: C_4  and  S_21
REMARK    4  A    between atoms: C_5  and  N_18
REMARK    5  A    between atoms: C_6  and  C_7
REMARK    6  A    between atoms: C_7  and  C_8
REMARK    7  A    between atoms: C_8  and  C_10
REMARK    8  A    between atoms: C_8  and  N_19
REMARK    9  A    between atoms: N_19  and  S_22
REMARK                            x       y       z     vdW  Elec       q    Type
REMARK                         _______ _______ _______ _____ _____    ______ ____
ROOT
ATOM      1  C   UNL     1     -46.577  -3.001 -32.759  0.00  0.00    +0.000 C 
ENDROOT
BRANCH   1   2
ATOM      2  C   UNL     1     -46.640  -3.488 -31.352  0.00  0.00    +0.000 C 
ATOM      3  N   UNL     1     -47.492  -4.583 -31.022  0.00  0.00    +0.000 NA
ATOM      4  O   UNL     1     -45.966  -2.907 -30.461  0.00  0.00    +0.000 OA
BRANCH   3   5
ATOM      5  C   UNL     1     -47.621  -5.075 -29.660  0.00  0.00    +0.000 C 
BRANCH   5   6
ATOM      6  C   UNL     1     -46.925  -6.418 -29.525  0.00  0.00    +0.000 C 
BRANCH   6   7
ATOM      7  S   UNL     1     -46.235  -6.623 -27.852  0.00  0.00    +0.000 S 
BRANCH   7  10
ATOM      8  C   UNL     1     -42.017  -5.595 -30.741  0.00  0.00    +0.000 C 
ATOM      9  C   UNL     1     -42.895  -5.907 -29.582  0.00  0.00    +0.000 A 
ATOM     10  C   UNL     1     -44.560  -6.318 -28.399  0.00  0.00    +0.000 A 
ATOM     11  N   UNL     1     -42.439  -6.075 -28.329  0.00  0.00    +0.000 NA
ATOM     12  N   UNL     1     -43.495  -6.338 -27.578  0.00  0.00    +0.000 NA
ATOM     13  N   UNL     1     -44.230  -6.052 -29.677  0.00  0.00    +0.000 NA
ENDBRANCH   7  10
ENDBRANCH   6   7
ENDBRANCH   5   6
ENDBRANCH   3   5
ENDBRANCH   1   2
BRANCH   1  14
ATOM     14  C   UNL     1     -45.365  -3.583 -33.473  0.00  0.00    +0.000 C 
BRANCH  14  15
ATOM     15  C   UNL     1     -44.175  -2.691 -33.307  0.00  0.00    +0.000 A 
ATOM     16  C   UNL     1     -42.871  -3.208 -33.315  0.00  0.00    +0.000 A 
ATOM     17  C   UNL     1     -41.775  -2.353 -33.164  0.00  0.00    +0.000 A 
ATOM     18  C   UNL     1     -41.978  -0.979 -33.007  0.00  0.00    +0.000 A 
ATOM     19  C   UNL     1     -43.275  -0.460 -32.999  0.00  0.00    +0.000 A 
ATOM     20  C   UNL     1     -44.372  -1.314 -33.150  0.00  0.00    +0.000 A 
ATOM     21 CL   UNL     1     -40.606   0.091 -32.818  0.00  0.00    +0.000 Cl
ENDBRANCH  14  15
BRANCH  14  22
ATOM     22  N   UNL     1     -45.071  -4.917 -32.962  0.00  0.00    +0.000 NA
BRANCH  22  24
ATOM     23  C   UNL     1     -46.433  -7.449 -33.131  0.00  0.00    +0.000 C 
ATOM     24  S   UNL     1     -45.773  -6.074 -34.045  0.00  0.00    +0.000 S 
ATOM     25  O   UNL     1     -46.870  -5.428 -34.843  0.00  0.00    +0.000 OA
ATOM     26  O   UNL     1     -44.710  -6.576 -34.981  0.00  0.00    +0.000 OA
ENDBRANCH  22  24
ENDBRANCH  14  22
ENDBRANCH   1  14
TORSDOF 9
ENDMDL
MODEL 2
REMARK VINA RESULT:      -5.5     12.973     16.115
REMARK  Name = ZINC000225948475
REMARK  9 active torsions:
REMARK  status: ('A' for Active; 'I' for Inactive)
REMARK    1  A    between atoms: C_3  and  S_21
REMARK    2  A    between atoms: C_4  and  C_5
REMARK    3  A    between atoms: C_4  and  S_21
REMARK    4  A    between atoms: C_5  and  N_18
REMARK    5  A    between atoms: C_6  and  C_7
REMARK    6  A    between atoms: C_7  and  C_8
REMARK    7  A    between atoms: C_8  and  C_10
REMARK    8  A    between atoms: C_8  and  N_19
REMARK    9  A    between atoms: N_19  and  S_22
REMARK                            x       y       z     vdW  Elec       q    Type
REMARK                         _______ _______ _______ _____ _____    ______ ____
ROOT
ATOM      1  C   UNL     1     -45.908 -18.879 -23.027  0.00  0.00    +0.000 C 
ENDROOT
BRANCH   1   2
ATOM      2  C   UNL     1     -45.586 -18.361 -24.386  0.00  0.00    +0.000 C 
ATOM      3  N   UNL     1     -44.670 -17.277 -24.530  0.00  0.00    +0.000 NA
ATOM      4  O   UNL     1     -46.151 -18.863 -25.394  0.00  0.00    +0.000 OA
BRANCH   3   5
ATOM      5  C   UNL     1     -44.349 -16.708 -25.829  0.00  0.00    +0.000 C 
BRANCH   5   6
ATOM      6  C   UNL     1     -45.207 -15.482 -26.085  0.00  0.00    +0.000 C 
BRANCH   6   7
ATOM      7  S   UNL     1     -45.029 -14.276 -24.733  0.00  0.00    +0.000 S 
BRANCH   7  10
ATOM      8  C   UNL     1     -47.170  -9.761 -26.225  0.00  0.00    +0.000 C 
ATOM      9  C   UNL     1     -46.809 -11.202 -26.164  0.00  0.00    +0.000 A 
ATOM     10  C   UNL     1     -45.968 -13.022 -25.595  0.00  0.00    +0.000 A 
ATOM     11  N   UNL     1     -47.279 -12.123 -27.022  0.00  0.00    +0.000 NA
ATOM     12  N   UNL     1     -46.747 -13.278 -26.661  0.00  0.00    +0.000 NA
ATOM     13  N   UNL     1     -45.977 -11.722 -25.242  0.00  0.00    +0.000 NA
ENDBRANCH   7  10
ENDBRANCH   6   7
ENDBRANCH   5   6
ENDBRANCH   3   5
ENDBRANCH   1   2
BRANCH   1  14
ATOM     14  C   UNL     1     -44.871 -18.407 -22.015  0.00  0.00    +0.000 C 
BRANCH  14  15
ATOM     15  C   UNL     1     -45.479 -17.433 -21.054  0.00  0.00    +0.000 A 
ATOM     16  C   UNL     1     -45.392 -16.050 -21.268  0.00  0.00    +0.000 A 
ATOM     17  C   UNL     1     -45.974 -15.161 -20.359  0.00  0.00    +0.000 A 
ATOM     18  C   UNL     1     -46.645 -15.650 -19.235  0.00  0.00    +0.000 A 
ATOM     19  C   UNL     1     -46.734 -17.028 -19.019  0.00  0.00    +0.000 A 
ATOM     20  C   UNL     1     -46.154 -17.918 -19.927  0.00  0.00    +0.000 A 
ATOM     21 CL   UNL     1     -47.373 -14.537 -18.098  0.00  0.00    +0.000 Cl
ENDBRANCH  14  15
BRANCH  14  22
ATOM     22  N   UNL     1     -44.314 -19.546 -21.295  0.00  0.00    +0.000 NA
BRANCH  22  24
ATOM     23  C   UNL     1     -42.616 -20.371 -23.471  0.00  0.00    +0.000 C 
ATOM     24  S   UNL     1     -42.671 -19.752 -21.805  0.00  0.00    +0.000 S 
ATOM     25  O   UNL     1     -41.945 -18.438 -21.734  0.00  0.00    +0.000 OA
ATOM     26  O   UNL     1     -41.996 -20.738 -20.895  0.00  0.00    +0.000 OA
ENDBRANCH  22  24
ENDBRANCH  14  22
ENDBRANCH   1  14
TORSDOF 9
ENDMDL
MODEL 3
REMARK VINA RESULT:      -5.5      2.375      4.042
REMARK  Name = ZINC000225948475
REMARK  9 active torsions:
REMARK  status: ('A' for Active; 'I' for Inactive)
REMARK    1  A    between atoms: C_3  and  S_21
REMARK    2  A    between atoms: C_4  and  C_5
REMARK    3  A    between atoms: C_4  and  S_21
REMARK    4  A    between atoms: C_5  and  N_18
REMARK    5  A    between atoms: C_6  and  C_7
REMARK    6  A    between atoms: C_7  and  C_8
REMARK    7  A    between atoms: C_8  and  C_10
REMARK    8  A    between atoms: C_8  and  N_19
REMARK    9  A    between atoms: N_19  and  S_22
REMARK                            x       y       z     vdW  Elec       q    Type
REMARK                         _______ _______ _______ _____ _____    ______ ____
ROOT
ATOM      1  C   UNL     1     -46.157  -3.286 -33.464  0.00  0.00    +0.000 C 
ENDROOT
BRANCH   1   2
ATOM      2  C   UNL     1     -46.414  -4.695 -33.873  0.00  0.00    +0.000 C 
ATOM      3  N   UNL     1     -45.577  -5.739 -33.377  0.00  0.00    +0.000 NA
ATOM      4  O   UNL     1     -47.348  -4.949 -34.679  0.00  0.00    +0.000 OA
BRANCH   3   5
ATOM      5  C   UNL     1     -45.760  -7.126 -33.773  0.00  0.00    +0.000 C 
BRANCH   5   6
ATOM      6  C   UNL     1     -45.769  -8.019 -32.544  0.00  0.00    +0.000 C 
BRANCH   6   7
ATOM      7  S   UNL     1     -47.416  -8.755 -32.293  0.00  0.00    +0.000 S 
BRANCH   7  10
ATOM      8  C   UNL     1     -46.699  -8.380 -27.142  0.00  0.00    +0.000 C 
ATOM      9  C   UNL     1     -46.815  -8.936 -28.516  0.00  0.00    +0.000 A 
ATOM     10  C   UNL     1     -47.098  -9.121 -30.572  0.00  0.00    +0.000 A 
ATOM     11  N   UNL     1     -46.642 -10.236 -28.809  0.00  0.00    +0.000 NA
ATOM     12  N   UNL     1     -46.819 -10.354 -30.113  0.00  0.00    +0.000 NA
ATOM     13  N   UNL     1     -47.104  -8.190 -29.598  0.00  0.00    +0.000 NA
ENDBRANCH   7  10
ENDBRANCH   6   7
ENDBRANCH   5   6
ENDBRANCH   3   5
ENDBRANCH   1   2
BRANCH   1  14
ATOM     14  C   UNL     1     -45.394  -3.242 -32.146  0.00  0.00    +0.000 C 
BRANCH  14  15
ATOM     15  C   UNL     1     -44.190  -2.361 -32.264  0.00  0.00    +0.000 A 
ATOM     16  C   UNL     1     -44.305  -0.963 -32.228  0.00  0.00    +0.000 A 
ATOM     17  C   UNL     1     -43.165  -0.162 -32.333  0.00  0.00    +0.000 A 
ATOM     18  C   UNL     1     -41.906  -0.753 -32.471  0.00  0.00    +0.000 A 
ATOM     19  C   UNL     1     -41.786  -2.144 -32.506  0.00  0.00    +0.000 A 
ATOM     20  C   UNL     1     -42.926  -2.948 -32.401  0.00  0.00    +0.000 A 
ATOM     21 CL   UNL     1     -40.478   0.251 -32.602  0.00  0.00    +0.000 Cl
ENDBRANCH  14  15
BRANCH  14  22
ATOM     22  N   UNL     1     -46.263  -2.768 -31.076  0.00  0.00    +0.000 NA
BRANCH  22  24
ATOM     23  C   UNL     1     -45.200  -5.169 -29.891  0.00  0.00    +0.000 C 
ATOM     24  S   UNL     1     -46.621  -4.111 -30.041  0.00  0.00    +0.000 S 
ATOM     25  O   UNL     1     -47.022  -3.615 -28.680  0.00  0.00    +0.000 OA
ATOM     26  O   UNL     1     -47.755  -4.899 -30.633  0.00  0.00    +0.000 OA
ENDBRANCH  22  24
ENDBRANCH  14  22
ENDBRANCH   1  14
TORSDOF 9
ENDMDL
