MODEL 1
REMARK VINA RESULT:      -5.9      0.000      0.000
REMARK  Name = ZINC000072241409 ZINC72241409 PubChem-95739679
REMARK  2 active torsions:
REMARK  status: ('A' for Active; 'I' for Inactive)
REMARK    1  A    between atoms: C_5  and  C_6
REMARK    2  A    between atoms: C_7  and  C_11
REMARK                            x       y       z     vdW  Elec       q    Type
REMARK                         _______ _______ _______ _____ _____    ______ ____
ROOT
ATOM      1  C   UNL     1     -44.482 -16.202 -23.860  0.00  0.00    +0.000 C 
ATOM      2  C   UNL     1     -45.080 -17.619 -23.762  0.00  0.00    +0.000 C 
ATOM      3  C   UNL     1     -43.474 -18.104 -25.638  0.00  0.00    +0.000 C 
ATOM      4  C   UNL     1     -42.965 -16.702 -25.539  0.00  0.00    +0.000 C 
ATOM      5  C   UNL     1     -45.239 -19.781 -25.048  0.00  0.00    +0.000 C 
ATOM      6  N   UNL     1     -44.583 -18.501 -24.823  0.00  0.00    +0.000 N 
ATOM      7  O   UNL     1     -42.968 -18.898 -26.476  0.00  0.00    +0.000 OA
ATOM      8  O   UNL     1     -43.113 -16.201 -24.228  0.00  0.00    +0.000 OA
ENDROOT
BRANCH   1  13
ATOM      9  C   UNL     1     -46.601  -9.549 -26.516  0.00  0.00    +0.000 C 
ATOM     10  C   UNL     1     -46.433 -10.985 -26.167  0.00  0.00    +0.000 A 
ATOM     11  C   UNL     1     -45.450 -11.498 -25.342  0.00  0.00    +0.000 A 
ATOM     12  C   UNL     1     -45.754 -12.845 -25.366  0.00  0.00    +0.000 A 
ATOM     13  C   UNL     1     -45.319 -15.247 -24.662  0.00  0.00    +0.000 C 
ATOM     14  N   UNL     1     -46.826 -13.096 -26.141  0.00  0.00    +0.000 NA
ATOM     15  N   UNL     1     -45.019 -13.845 -24.655  0.00  0.00    +0.000 NA
ATOM     16  O   UNL     1     -47.208 -11.946 -26.607  0.00  0.00    +0.000 OA
ATOM     17  O   UNL     1     -46.300 -15.693 -25.313  0.00  0.00    +0.000 OA
ENDBRANCH   1  13
BRANCH   2  18
ATOM     18  C   UNL     1     -44.813 -18.210 -22.412  0.00  0.00    +0.000 A 
ATOM     19  C   UNL     1     -45.844 -18.248 -21.467  0.00  0.00    +0.000 A 
ATOM     20  C   UNL     1     -45.619 -18.801 -20.203  0.00  0.00    +0.000 A 
ATOM     21  C   UNL     1     -44.363 -19.321 -19.880  0.00  0.00    +0.000 A 
ATOM     22  C   UNL     1     -43.329 -19.289 -20.821  0.00  0.00    +0.000 A 
ATOM     23  C   UNL     1     -43.553 -18.736 -22.085  0.00  0.00    +0.000 A 
ATOM     24 CL   UNL     1     -44.083 -20.013 -18.297  0.00  0.00    +0.000 Cl
ENDBRANCH   2  18
TORSDOF 2
ENDMDL
MODEL 2
REMARK VINA RESULT:      -5.9      9.682     15.270
REMARK  Name = ZINC000072241409 ZINC72241409 PubChem-95739679
REMARK  2 active torsions:
REMARK  status: ('A' for Active; 'I' for Inactive)
REMARK    1  A    between atoms: C_5  and  C_6
REMARK    2  A    between atoms: C_7  and  C_11
REMARK                            x       y       z     vdW  Elec       q    Type
REMARK                         _______ _______ _______ _____ _____    ______ ____
ROOT
ATOM      1  C   UNL     1     -45.599  -3.825 -30.773  0.00  0.00    +0.000 C 
ATOM      2  C   UNL     1     -44.549  -4.245 -31.820  0.00  0.00    +0.000 C 
ATOM      3  C   UNL     1     -46.567  -4.531 -33.295  0.00  0.00    +0.000 C 
ATOM      4  C   UNL     1     -47.429  -4.029 -32.181  0.00  0.00    +0.000 C 
ATOM      5  C   UNL     1     -44.345  -5.411 -34.046  0.00  0.00    +0.000 C 
ATOM      6  N   UNL     1     -45.168  -4.724 -33.060  0.00  0.00    +0.000 N 
ATOM      7  O   UNL     1     -47.087  -4.836 -34.402  0.00  0.00    +0.000 OA
ATOM      8  O   UNL     1     -46.709  -3.151 -31.341  0.00  0.00    +0.000 OA
ENDROOT
BRANCH   1  13
ATOM      9  C   UNL     1     -46.088 -10.866 -28.328  0.00  0.00    +0.000 C 
ATOM     10  C   UNL     1     -46.155  -9.395 -28.537  0.00  0.00    +0.000 A 
ATOM     11  C   UNL     1     -45.620  -8.715 -29.614  0.00  0.00    +0.000 A 
ATOM     12  C   UNL     1     -45.963  -7.412 -29.308  0.00  0.00    +0.000 A 
ATOM     13  C   UNL     1     -45.985  -4.926 -29.828  0.00  0.00    +0.000 C 
ATOM     14  N   UNL     1     -46.642  -7.340 -28.148  0.00  0.00    +0.000 NA
ATOM     15  N   UNL     1     -45.636  -6.285 -30.124  0.00  0.00    +0.000 NA
ATOM     16  O   UNL     1     -46.738  -8.560 -27.712  0.00  0.00    +0.000 OA
ATOM     17  O   UNL     1     -46.642  -4.640 -28.793  0.00  0.00    +0.000 OA
ENDBRANCH   1  13
BRANCH   2  18
ATOM     18  C   UNL     1     -43.603  -3.117 -32.100  0.00  0.00    +0.000 A 
ATOM     19  C   UNL     1     -42.245  -3.395 -32.287  0.00  0.00    +0.000 A 
ATOM     20  C   UNL     1     -41.346  -2.359 -32.555  0.00  0.00    +0.000 A 
ATOM     21  C   UNL     1     -41.802  -1.041 -32.640  0.00  0.00    +0.000 A 
ATOM     22  C   UNL     1     -43.159  -0.757 -32.457  0.00  0.00    +0.000 A 
ATOM     23  C   UNL     1     -44.059  -1.792 -32.188  0.00  0.00    +0.000 A 
ATOM     24 CL   UNL     1     -40.675   0.256 -32.976  0.00  0.00    +0.000 Cl
ENDBRANCH   2  18
TORSDOF 2
ENDMDL
MODEL 3
REMARK VINA RESULT:      -5.9     10.758     13.461
REMARK  Name = ZINC000072241409 ZINC72241409 PubChem-95739679
REMARK  2 active torsions:
REMARK  status: ('A' for Active; 'I' for Inactive)
REMARK    1  A    between atoms: C_5  and  C_6
REMARK    2  A    between atoms: C_7  and  C_11
REMARK                            x       y       z     vdW  Elec       q    Type
REMARK                         _______ _______ _______ _____ _____    ______ ____
ROOT
ATOM      1  C   UNL     1     -46.397  -5.229 -30.763  0.00  0.00    +0.000 C 
ATOM      2  C   UNL     1     -45.340  -6.094 -30.051  0.00  0.00    +0.000 C 
ATOM      3  C   UNL     1     -46.481  -5.251 -27.972  0.00  0.00    +0.000 C 
ATOM      4  C   UNL     1     -47.469  -4.529 -28.831  0.00  0.00    +0.000 C 
ATOM      5  C   UNL     1     -44.292  -6.455 -27.787  0.00  0.00    +0.000 C 
ATOM      6  N   UNL     1     -45.384  -5.930 -28.594  0.00  0.00    +0.000 N 
ATOM      7  O   UNL     1     -46.586  -5.203 -26.718  0.00  0.00    +0.000 OA
ATOM      8  O   UNL     1     -47.634  -5.182 -30.072  0.00  0.00    +0.000 OA
ENDROOT
BRANCH   1  13
ATOM      9  C   UNL     1     -41.281  -0.180 -32.797  0.00  0.00    +0.000 C 
ATOM     10  C   UNL     1     -42.508  -0.932 -32.422  0.00  0.00    +0.000 A 
ATOM     11  C   UNL     1     -42.557  -2.274 -32.100  0.00  0.00    +0.000 A 
ATOM     12  C   UNL     1     -43.905  -2.440 -31.841  0.00  0.00    +0.000 A 
ATOM     13  C   UNL     1     -45.892  -3.877 -31.179  0.00  0.00    +0.000 C 
ATOM     14  N   UNL     1     -44.584  -1.289 -32.001  0.00  0.00    +0.000 NA
ATOM     15  N   UNL     1     -44.498  -3.682 -31.455  0.00  0.00    +0.000 NA
ATOM     16  O   UNL     1     -43.705  -0.400 -32.351  0.00  0.00    +0.000 OA
ATOM     17  O   UNL     1     -46.704  -2.917 -31.251  0.00  0.00    +0.000 OA
ENDBRANCH   1  13
BRANCH   2  18
ATOM     18  C   UNL     1     -45.499  -7.535 -30.428  0.00  0.00    +0.000 A 
ATOM     19  C   UNL     1     -44.495  -8.160 -31.177  0.00  0.00    +0.000 A 
ATOM     20  C   UNL     1     -44.619  -9.505 -31.535  0.00  0.00    +0.000 A 
ATOM     21  C   UNL     1     -45.746 -10.233 -31.143  0.00  0.00    +0.000 A 
ATOM     22  C   UNL     1     -46.751  -9.616 -30.392  0.00  0.00    +0.000 A 
ATOM     23  C   UNL     1     -46.628  -8.270 -30.034  0.00  0.00    +0.000 A 
ATOM     24 CL   UNL     1     -45.900 -11.917 -31.592  0.00  0.00    +0.000 Cl
ENDBRANCH   2  18
TORSDOF 2
ENDMDL
