MODEL 1
REMARK VINA RESULT:      -6.8      0.000      0.000
REMARK  Name = ZINC000004686535 ZINC04686535 PubChem-92227604
REMARK  5 active torsions:
REMARK  status: ('A' for Active; 'I' for Inactive)
REMARK    1  A    between atoms: C_6  and  N_23
REMARK    2  A    between atoms: C_9  and  C_10
REMARK    3  A    between atoms: C_14  and  C_15
REMARK    4  A    between atoms: C_14  and  N_24
REMARK    5  A    between atoms: C_15  and  C_16
REMARK                            x       y       z     vdW  Elec       q    Type
REMARK                         _______ _______ _______ _____ _____    ______ ____
ROOT
ATOM      1  C   UNL     1     -45.693  -7.624 -28.509  0.00  0.00    +0.000 C 
ATOM      2  C   UNL     1     -46.209  -9.059 -28.711  0.00  0.00    +0.000 C 
ATOM      3  C   UNL     1     -46.981  -9.466 -27.450  0.00  0.00    +0.000 C 
ATOM      4  C   UNL     1     -46.822  -8.299 -26.564  0.00  0.00    +0.000 C 
ATOM      5  C   UNL     1     -44.178  -7.615 -28.658  0.00  0.00    +0.000 C 
ATOM      6  N   UNL     1     -46.064  -7.258 -27.147  0.00  0.00    +0.000 N 
ATOM      7  O   UNL     1     -47.322  -8.227 -25.410  0.00  0.00    +0.000 OA
ENDROOT
BRANCH   1   8
ATOM      8  C   UNL     1     -46.352  -6.715 -29.513  0.00  0.00    +0.000 C 
ATOM      9  N   UNL     1     -45.593  -5.669 -30.130  0.00  0.00    +0.000 NA
ATOM     10  O   UNL     1     -47.584  -6.830 -29.764  0.00  0.00    +0.000 OA
BRANCH   9  16
ATOM     11  C   UNL     1     -47.274  -4.844 -34.761  0.00  0.00    +0.000 C 
ATOM     12  C   UNL     1     -47.004  -4.278 -33.377  0.00  0.00    +0.000 C 
ATOM     13  C   UNL     1     -46.137  -3.023 -33.466  0.00  0.00    +0.000 C 
ATOM     14  C   UNL     1     -45.940  -2.422 -32.077  0.00  0.00    +0.000 C 
ATOM     15  C   UNL     1     -45.302  -3.443 -31.137  0.00  0.00    +0.000 C 
ATOM     16  C   UNL     1     -46.175  -4.699 -31.050  0.00  0.00    +0.000 C 
ATOM     17  C   UNL     1     -46.382  -5.324 -32.437  0.00  0.00    +0.000 C 
ATOM     18  C   UNL     1     -45.080  -5.900 -32.998  0.00  0.00    +0.000 C 
ENDBRANCH   9  16
ENDBRANCH   1   8
BRANCH   6  19
ATOM     19  C   UNL     1     -45.840  -5.948 -26.538  0.00  0.00    +0.000 C 
BRANCH  19  20
ATOM     20  C   UNL     1     -47.078  -5.068 -26.666  0.00  0.00    +0.000 C 
BRANCH  20  21
ATOM     21  C   UNL     1     -47.161  -4.076 -25.556  0.00  0.00    +0.000 A 
ATOM     22  C   UNL     1     -47.298  -2.709 -25.832  0.00  0.00    +0.000 A 
ATOM     23  C   UNL     1     -47.375  -1.788 -24.785  0.00  0.00    +0.000 A 
ATOM     24  C   UNL     1     -47.318  -2.230 -23.459  0.00  0.00    +0.000 A 
ATOM     25  C   UNL     1     -47.189  -3.594 -23.182  0.00  0.00    +0.000 A 
ATOM     26  C   UNL     1     -47.112  -4.517 -24.229  0.00  0.00    +0.000 A 
ATOM     27 CL   UNL     1     -47.413  -1.076 -22.147  0.00  0.00    +0.000 Cl
ENDBRANCH  20  21
ENDBRANCH  19  20
ENDBRANCH   6  19
TORSDOF 5
ENDMDL
MODEL 2
REMARK VINA RESULT:      -6.6      9.574     14.225
REMARK  Name = ZINC000004686535 ZINC04686535 PubChem-92227604
REMARK  5 active torsions:
REMARK  status: ('A' for Active; 'I' for Inactive)
REMARK    1  A    between atoms: C_6  and  N_23
REMARK    2  A    between atoms: C_9  and  C_10
REMARK    3  A    between atoms: C_14  and  C_15
REMARK    4  A    between atoms: C_14  and  N_24
REMARK    5  A    between atoms: C_15  and  C_16
REMARK                            x       y       z     vdW  Elec       q    Type
REMARK                         _______ _______ _______ _____ _____    ______ ____
ROOT
ATOM      1  C   UNL     1     -44.969 -13.843 -25.068  0.00  0.00    +0.000 C 
ATOM      2  C   UNL     1     -45.882 -12.670 -25.460  0.00  0.00    +0.000 C 
ATOM      3  C   UNL     1     -46.153 -12.763 -26.966  0.00  0.00    +0.000 C 
ATOM      4  C   UNL     1     -45.346 -13.923 -27.384  0.00  0.00    +0.000 C 
ATOM      5  C   UNL     1     -43.701 -13.295 -24.428  0.00  0.00    +0.000 C 
ATOM      6  N   UNL     1     -44.644 -14.525 -26.316  0.00  0.00    +0.000 N 
ATOM      7  O   UNL     1     -45.296 -14.347 -28.569  0.00  0.00    +0.000 OA
ENDROOT
BRANCH   1   8
ATOM      8  C   UNL     1     -45.712 -14.757 -24.129  0.00  0.00    +0.000 C 
ATOM      9  N   UNL     1     -45.041 -15.299 -22.986  0.00  0.00    +0.000 NA
ATOM     10  O   UNL     1     -46.902 -15.097 -24.379  0.00  0.00    +0.000 OA
BRANCH   9  16
ATOM     11  C   UNL     1     -46.829 -16.065 -18.385  0.00  0.00    +0.000 C 
ATOM     12  C   UNL     1     -46.547 -16.642 -19.762  0.00  0.00    +0.000 C 
ATOM     13  C   UNL     1     -45.714 -17.918 -19.652  0.00  0.00    +0.000 C 
ATOM     14  C   UNL     1     -45.505 -18.529 -21.036  0.00  0.00    +0.000 C 
ATOM     15  C   UNL     1     -44.824 -17.528 -21.966  0.00  0.00    +0.000 C 
ATOM     16  C   UNL     1     -45.664 -16.250 -22.074  0.00  0.00    +0.000 C 
ATOM     17  C   UNL     1     -45.881 -15.616 -20.693  0.00  0.00    +0.000 C 
ATOM     18  C   UNL     1     -44.577 -15.070 -20.109  0.00  0.00    +0.000 C 
ENDBRANCH   9  16
ENDBRANCH   1   8
BRANCH   6  19
ATOM     19  C   UNL     1     -43.854 -15.751 -26.423  0.00  0.00    +0.000 C 
BRANCH  19  20
ATOM     20  C   UNL     1     -44.757 -16.979 -26.465  0.00  0.00    +0.000 C 
BRANCH  20  21
ATOM     21  C   UNL     1     -44.196 -18.097 -25.654  0.00  0.00    +0.000 A 
ATOM     22  C   UNL     1     -44.962 -19.240 -25.390  0.00  0.00    +0.000 A 
ATOM     23  C   UNL     1     -44.426 -20.283 -24.630  0.00  0.00    +0.000 A 
ATOM     24  C   UNL     1     -43.122 -20.188 -24.134  0.00  0.00    +0.000 A 
ATOM     25  C   UNL     1     -42.353 -19.052 -24.403  0.00  0.00    +0.000 A 
ATOM     26  C   UNL     1     -42.888 -18.008 -25.164  0.00  0.00    +0.000 A 
ATOM     27 CL   UNL     1     -42.451 -21.493 -23.181  0.00  0.00    +0.000 Cl
ENDBRANCH  20  21
ENDBRANCH  19  20
ENDBRANCH   6  19
TORSDOF 5
ENDMDL
MODEL 3
REMARK VINA RESULT:      -6.4     11.420     14.693
REMARK  Name = ZINC000004686535 ZINC04686535 PubChem-92227604
REMARK  5 active torsions:
REMARK  status: ('A' for Active; 'I' for Inactive)
REMARK    1  A    between atoms: C_6  and  N_23
REMARK    2  A    between atoms: C_9  and  C_10
REMARK    3  A    between atoms: C_14  and  C_15
REMARK    4  A    between atoms: C_14  and  N_24
REMARK    5  A    between atoms: C_15  and  C_16
REMARK                            x       y       z     vdW  Elec       q    Type
REMARK                         _______ _______ _______ _____ _____    ______ ____
ROOT
ATOM      1  C   UNL     1     -44.288 -16.371 -23.993  0.00  0.00    +0.000 C 
ATOM      2  C   UNL     1     -44.124 -15.607 -25.318  0.00  0.00    +0.000 C 
ATOM      3  C   UNL     1     -44.500 -16.557 -26.461  0.00  0.00    +0.000 C 
ATOM      4  C   UNL     1     -44.793 -17.823 -25.767  0.00  0.00    +0.000 C 
ATOM      5  C   UNL     1     -42.961 -16.363 -23.247  0.00  0.00    +0.000 C 
ATOM      6  N   UNL     1     -44.644 -17.735 -24.365  0.00  0.00    +0.000 N 
ATOM      7  O   UNL     1     -45.153 -18.875 -26.359  0.00  0.00    +0.000 OA
ENDROOT
BRANCH   1   8
ATOM      8  C   UNL     1     -45.382 -15.726 -23.182  0.00  0.00    +0.000 C 
ATOM      9  N   UNL     1     -45.258 -15.648 -21.758  0.00  0.00    +0.000 NA
ATOM     10  O   UNL     1     -46.433 -15.313 -23.746  0.00  0.00    +0.000 OA
BRANCH   9  16
ATOM     11  C   UNL     1     -47.108 -11.581 -19.526  0.00  0.00    +0.000 C 
ATOM     12  C   UNL     1     -47.226 -13.077 -19.762  0.00  0.00    +0.000 C 
ATOM     13  C   UNL     1     -47.278 -13.831 -18.434  0.00  0.00    +0.000 C 
ATOM     14  C   UNL     1     -47.475 -15.324 -18.687  0.00  0.00    +0.000 C 
ATOM     15  C   UNL     1     -46.353 -15.871 -19.565  0.00  0.00    +0.000 C 
ATOM     16  C   UNL     1     -46.305 -15.113 -20.896  0.00  0.00    +0.000 C 
ATOM     17  C   UNL     1     -46.101 -13.609 -20.666  0.00  0.00    +0.000 C 
ATOM     18  C   UNL     1     -44.714 -13.306 -20.097  0.00  0.00    +0.000 C 
ENDBRANCH   9  16
ENDBRANCH   1   8
BRANCH   6  19
ATOM     19  C   UNL     1     -44.971 -18.804 -23.423  0.00  0.00    +0.000 C 
BRANCH  19  20
ATOM     20  C   UNL     1     -43.729 -19.606 -23.054  0.00  0.00    +0.000 C 
BRANCH  20  21
ATOM     21  C   UNL     1     -43.438 -19.524 -21.594  0.00  0.00    +0.000 A 
ATOM     22  C   UNL     1     -44.391 -19.008 -20.706  0.00  0.00    +0.000 A 
ATOM     23  C   UNL     1     -44.109 -18.937 -19.340  0.00  0.00    +0.000 A 
ATOM     24  C   UNL     1     -42.874 -19.383 -18.857  0.00  0.00    +0.000 A 
ATOM     25  C   UNL     1     -41.925 -19.905 -19.740  0.00  0.00    +0.000 A 
ATOM     26  C   UNL     1     -42.207 -19.978 -21.107  0.00  0.00    +0.000 A 
ATOM     27 CL   UNL     1     -42.520 -19.292 -17.145  0.00  0.00    +0.000 Cl
ENDBRANCH  20  21
ENDBRANCH  19  20
ENDBRANCH   6  19
TORSDOF 5
ENDMDL
