MODEL 1
REMARK VINA RESULT:      -6.8      0.000      0.000
REMARK  Name = ZINC000493967022
REMARK  7 active torsions:
REMARK  status: ('A' for Active; 'I' for Inactive)
REMARK    1  A    between atoms: C_2  and  O_25
REMARK    2  A    between atoms: C_5  and  C_6
REMARK    3  A    between atoms: C_7  and  C_8
REMARK    4  A    between atoms: C_9  and  C_10
REMARK    5  A    between atoms: C_9  and  N_28
REMARK    6  A    between atoms: C_12  and  C_13
REMARK    7  A    between atoms: C_17  and  C_18
REMARK                            x       y       z     vdW  Elec       q    Type
REMARK                         _______ _______ _______ _____ _____    ______ ____
ROOT
ATOM      1  C   UNL     1     -46.640  -4.117 -30.726  0.00  0.00    +0.000 C 
ATOM      2  O   UNL     1     -46.695  -3.284 -29.783  0.00  0.00    +0.000 OA
ATOM      3  N   UNL     1     -46.918  -5.499 -30.489  0.00  0.00    +0.000 NA
ENDROOT
BRANCH   1   5
ATOM      4  C   UNL     1     -44.886  -4.173 -32.495  0.00  0.00    +0.000 C 
ATOM      5  C   UNL     1     -46.278  -3.648 -32.097  0.00  0.00    +0.000 C 
ATOM      6  C   UNL     1     -47.287  -4.169 -33.129  0.00  0.00    +0.000 C 
ATOM      7  C   UNL     1     -46.443  -4.926 -34.075  0.00  0.00    +0.000 C 
ATOM      8  C   UNL     1     -44.064  -5.761 -34.335  0.00  0.00    +0.000 C 
ATOM      9  O   UNL     1     -46.894  -5.538 -35.079  0.00  0.00    +0.000 OA
ATOM     10  N   UNL     1     -45.075  -4.906 -33.732  0.00  0.00    +0.000 N 
BRANCH   4  14
ATOM     11  C   UNL     1     -42.080  -0.943 -32.997  0.00  0.00    +0.000 A 
ATOM     12  C   UNL     1     -41.654  -2.195 -32.544  0.00  0.00    +0.000 A 
ATOM     13  C   UNL     1     -42.571  -3.239 -32.384  0.00  0.00    +0.000 A 
ATOM     14  C   UNL     1     -43.922  -3.040 -32.680  0.00  0.00    +0.000 A 
ATOM     15  C   UNL     1     -44.356  -1.785 -33.131  0.00  0.00    +0.000 A 
ATOM     16  C   UNL     1     -43.439  -0.741 -33.289  0.00  0.00    +0.000 A 
BRANCH  11  18
ATOM     17  C   UNL     1     -40.102   0.315 -32.205  0.00  0.00    +0.000 C 
ATOM     18  O   UNL     1     -41.138   0.078 -33.149  0.00  0.00    +0.000 OA
ENDBRANCH  11  18
ENDBRANCH   4  14
ENDBRANCH   1   5
BRANCH   3  19
ATOM     19  C   UNL     1     -47.287  -6.000 -29.177  0.00  0.00    +0.000 C 
BRANCH  19  20
ATOM     20  C   UNL     1     -46.506  -7.230 -28.877  0.00  0.00    +0.000 A 
ATOM     21  C   UNL     1     -44.889  -8.495 -28.302  0.00  0.00    +0.000 A 
ATOM     22  C   UNL     1     -45.948  -9.261 -28.747  0.00  0.00    +0.000 A 
ATOM     23  N   UNL     1     -45.250  -7.201 -28.391  0.00  0.00    +0.000 NA
ATOM     24  N   UNL     1     -46.971  -8.470 -29.116  0.00  0.00    +0.000 NA
BRANCH  22  25
ATOM     25  C   UNL     1     -45.973 -10.731 -28.827  0.00  0.00    +0.000 A 
ATOM     26  C   UNL     1     -45.891 -11.381 -30.068  0.00  0.00    +0.000 A 
ATOM     27  C   UNL     1     -45.917 -12.777 -30.137  0.00  0.00    +0.000 A 
ATOM     28  C   UNL     1     -46.026 -13.533 -28.967  0.00  0.00    +0.000 A 
ATOM     29  C   UNL     1     -46.109 -12.894 -27.727  0.00  0.00    +0.000 A 
ATOM     30  C   UNL     1     -46.082 -11.497 -27.657  0.00  0.00    +0.000 A 
BRANCH  29  31
ATOM     31  C   UNL     1     -46.223 -13.670 -26.525  0.00  0.00    +0.000 C 
ATOM     32  N   UNL     1     -46.315 -14.296 -25.555  0.00  0.00    +0.000 NA
ENDBRANCH  29  31
ENDBRANCH  22  25
ENDBRANCH  19  20
ENDBRANCH   3  19
TORSDOF 7
ENDMDL
MODEL 2
REMARK VINA RESULT:      -6.7      8.482     12.913
REMARK  Name = ZINC000493967022
REMARK  7 active torsions:
REMARK  status: ('A' for Active; 'I' for Inactive)
REMARK    1  A    between atoms: C_2  and  O_25
REMARK    2  A    between atoms: C_5  and  C_6
REMARK    3  A    between atoms: C_7  and  C_8
REMARK    4  A    between atoms: C_9  and  C_10
REMARK    5  A    between atoms: C_9  and  N_28
REMARK    6  A    between atoms: C_12  and  C_13
REMARK    7  A    between atoms: C_17  and  C_18
REMARK                            x       y       z     vdW  Elec       q    Type
REMARK                         _______ _______ _______ _____ _____    ______ ____
ROOT
ATOM      1  C   UNL     1     -43.115 -18.625 -27.023  0.00  0.00    +0.000 C 
ATOM      2  O   UNL     1     -42.192 -19.426 -26.722  0.00  0.00    +0.000 OA
ATOM      3  N   UNL     1     -44.443 -18.833 -26.536  0.00  0.00    +0.000 NA
ENDROOT
BRANCH   1   5
ATOM      4  C   UNL     1     -42.810 -16.151 -27.070  0.00  0.00    +0.000 C 
ATOM      5  C   UNL     1     -42.811 -17.452 -27.896  0.00  0.00    +0.000 C 
ATOM      6  C   UNL     1     -41.424 -17.601 -28.535  0.00  0.00    +0.000 C 
ATOM      7  C   UNL     1     -40.713 -16.387 -28.087  0.00  0.00    +0.000 C 
ATOM      8  C   UNL     1     -40.995 -14.430 -26.502  0.00  0.00    +0.000 C 
ATOM      9  O   UNL     1     -39.516 -16.129 -28.383  0.00  0.00    +0.000 OA
ATOM     10  N   UNL     1     -41.506 -15.549 -27.277  0.00  0.00    +0.000 N 
BRANCH   4  14
ATOM     11  C   UNL     1     -45.991 -13.529 -28.315  0.00  0.00    +0.000 A 
ATOM     12  C   UNL     1     -45.935 -14.010 -27.004  0.00  0.00    +0.000 A 
ATOM     13  C   UNL     1     -44.898 -14.861 -26.607  0.00  0.00    +0.000 A 
ATOM     14  C   UNL     1     -43.907 -15.234 -27.519  0.00  0.00    +0.000 A 
ATOM     15  C   UNL     1     -43.961 -14.758 -28.837  0.00  0.00    +0.000 A 
ATOM     16  C   UNL     1     -44.998 -13.909 -29.233  0.00  0.00    +0.000 A 
BRANCH  11  18
ATOM     17  C   UNL     1     -46.893 -11.651 -29.651  0.00  0.00    +0.000 C 
ATOM     18  O   UNL     1     -47.039 -12.678 -28.679  0.00  0.00    +0.000 OA
ENDBRANCH  11  18
ENDBRANCH   4  14
ENDBRANCH   1   5
BRANCH   3  19
ATOM     19  C   UNL     1     -44.784 -19.950 -25.673  0.00  0.00    +0.000 C 
BRANCH  19  20
ATOM     20  C   UNL     1     -44.598 -19.553 -24.251  0.00  0.00    +0.000 A 
ATOM     21  C   UNL     1     -43.784 -19.447 -22.283  0.00  0.00    +0.000 A 
ATOM     22  C   UNL     1     -44.946 -18.705 -22.351  0.00  0.00    +0.000 A 
ATOM     23  N   UNL     1     -43.570 -19.989 -23.497  0.00  0.00    +0.000 NA
ATOM     24  N   UNL     1     -45.469 -18.770 -23.588  0.00  0.00    +0.000 NA
BRANCH  22  25
ATOM     25  C   UNL     1     -45.553 -17.952 -21.239  0.00  0.00    +0.000 A 
ATOM     26  C   UNL     1     -46.149 -18.625 -20.162  0.00  0.00    +0.000 A 
ATOM     27  C   UNL     1     -46.724 -17.905 -19.111  0.00  0.00    +0.000 A 
ATOM     28  C   UNL     1     -46.709 -16.508 -19.131  0.00  0.00    +0.000 A 
ATOM     29  C   UNL     1     -46.118 -15.830 -20.200  0.00  0.00    +0.000 A 
ATOM     30  C   UNL     1     -45.541 -16.550 -21.251  0.00  0.00    +0.000 A 
BRANCH  29  31
ATOM     31  C   UNL     1     -46.103 -14.395 -20.222  0.00  0.00    +0.000 C 
ATOM     32  N   UNL     1     -46.093 -13.237 -20.240  0.00  0.00    +0.000 NA
ENDBRANCH  29  31
ENDBRANCH  22  25
ENDBRANCH  19  20
ENDBRANCH   3  19
TORSDOF 7
ENDMDL
MODEL 3
REMARK VINA RESULT:      -6.6      3.093      5.612
REMARK  Name = ZINC000493967022
REMARK  7 active torsions:
REMARK  status: ('A' for Active; 'I' for Inactive)
REMARK    1  A    between atoms: C_2  and  O_25
REMARK    2  A    between atoms: C_5  and  C_6
REMARK    3  A    between atoms: C_7  and  C_8
REMARK    4  A    between atoms: C_9  and  C_10
REMARK    5  A    between atoms: C_9  and  N_28
REMARK    6  A    between atoms: C_12  and  C_13
REMARK    7  A    between atoms: C_17  and  C_18
REMARK                            x       y       z     vdW  Elec       q    Type
REMARK                         _______ _______ _______ _____ _____    ______ ____
ROOT
ATOM      1  C   UNL     1     -46.919  -8.925 -28.382  0.00  0.00    +0.000 C 
ATOM      2  O   UNL     1     -46.887  -8.011 -27.516  0.00  0.00    +0.000 OA
ATOM      3  N   UNL     1     -46.880 -10.299 -27.988  0.00  0.00    +0.000 NA
ENDROOT
BRANCH   1   5
ATOM      4  C   UNL     1     -45.652  -7.983 -30.311  0.00  0.00    +0.000 C 
ATOM      5  C   UNL     1     -46.996  -8.562 -29.828  0.00  0.00    +0.000 C 
ATOM      6  C   UNL     1     -47.304  -9.800 -30.680  0.00  0.00    +0.000 C 
ATOM      7  C   UNL     1     -46.166  -9.858 -31.618  0.00  0.00    +0.000 C 
ATOM      8  C   UNL     1     -43.918  -8.762 -32.033  0.00  0.00    +0.000 C 
ATOM      9  O   UNL     1     -46.024 -10.754 -32.491  0.00  0.00    +0.000 OA
ATOM     10  N   UNL     1     -45.240  -8.811 -31.428  0.00  0.00    +0.000 N 
BRANCH   4  14
ATOM     11  C   UNL     1     -46.078  -3.853 -31.456  0.00  0.00    +0.000 A 
ATOM     12  C   UNL     1     -45.323  -4.209 -30.334  0.00  0.00    +0.000 A 
ATOM     13  C   UNL     1     -45.189  -5.552 -29.969  0.00  0.00    +0.000 A 
ATOM     14  C   UNL     1     -45.807  -6.551 -30.726  0.00  0.00    +0.000 A 
ATOM     15  C   UNL     1     -46.569  -6.200 -31.849  0.00  0.00    +0.000 A 
ATOM     16  C   UNL     1     -46.704  -4.857 -32.213  0.00  0.00    +0.000 A 
BRANCH  11  18
ATOM     17  C   UNL     1     -45.221  -1.532 -31.422  0.00  0.00    +0.000 C 
ATOM     18  O   UNL     1     -46.191  -2.502 -31.795  0.00  0.00    +0.000 OA
ENDBRANCH  11  18
ENDBRANCH   4  14
ENDBRANCH   1   5
BRANCH   3  19
ATOM     19  C   UNL     1     -46.819 -10.701 -26.593  0.00  0.00    +0.000 C 
BRANCH  19  20
ATOM     20  C   UNL     1     -46.401 -12.127 -26.506  0.00  0.00    +0.000 A 
ATOM     21  C   UNL     1     -45.800 -14.086 -27.097  0.00  0.00    +0.000 A 
ATOM     22  C   UNL     1     -45.986 -14.045 -25.729  0.00  0.00    +0.000 A 
ATOM     23  N   UNL     1     -46.070 -12.861 -27.587  0.00  0.00    +0.000 NA
ATOM     24  N   UNL     1     -46.370 -12.813 -25.349  0.00  0.00    +0.000 NA
BRANCH  22  25
ATOM     25  C   UNL     1     -45.809 -15.175 -24.802  0.00  0.00    +0.000 A 
ATOM     26  C   UNL     1     -45.655 -14.953 -23.425  0.00  0.00    +0.000 A 
ATOM     27  C   UNL     1     -45.486 -16.030 -22.550  0.00  0.00    +0.000 A 
ATOM     28  C   UNL     1     -45.470 -17.336 -23.045  0.00  0.00    +0.000 A 
ATOM     29  C   UNL     1     -45.623 -17.566 -24.415  0.00  0.00    +0.000 A 
ATOM     30  C   UNL     1     -45.792 -16.489 -25.291  0.00  0.00    +0.000 A 
BRANCH  29  31
ATOM     31  C   UNL     1     -45.603 -18.908 -24.924  0.00  0.00    +0.000 C 
ATOM     32  N   UNL     1     -45.588 -19.991 -25.336  0.00  0.00    +0.000 NA
ENDBRANCH  29  31
ENDBRANCH  22  25
ENDBRANCH  19  20
ENDBRANCH   3  19
TORSDOF 7
ENDMDL
