MODEL 1
REMARK VINA RESULT:      -6.3      0.000      0.000
REMARK  Name = ZINC000072238206 ZINC72238206 PubChem-95738335
REMARK  4 active torsions:
REMARK  status: ('A' for Active; 'I' for Inactive)
REMARK    1  A    between atoms: C_2  and  N_20
REMARK    2  A    between atoms: C_4  and  N_22
REMARK    3  A    between atoms: C_6  and  C_7
REMARK    4  A    between atoms: C_11  and  C_12
REMARK                            x       y       z     vdW  Elec       q    Type
REMARK                         _______ _______ _______ _____ _____    ______ ____
ROOT
ATOM      1  C   UNL     1     -46.158 -17.820 -20.431  0.00  0.00    +0.000 C 
ATOM      2  C   UNL     1     -46.579 -19.198 -19.916  0.00  0.00    +0.000 C 
ATOM      3  C   UNL     1     -45.673 -19.684 -18.792  0.00  0.00    +0.000 C 
ATOM      4  C   UNL     1     -44.230 -19.568 -19.168  0.00  0.00    +0.000 C 
ATOM      5  C   UNL     1     -44.706 -17.806 -20.935  0.00  0.00    +0.000 C 
ATOM      6  C   UNL     1     -42.362 -18.220 -20.147  0.00  0.00    +0.000 C 
ATOM      7  N   UNL     1     -43.783 -18.519 -20.045  0.00  0.00    +0.000 N 
ATOM      8  O   UNL     1     -43.402 -20.373 -18.664  0.00  0.00    +0.000 OA
ENDROOT
BRANCH   5   9
ATOM      9  C   UNL     1     -44.604 -18.316 -22.342  0.00  0.00    +0.000 A 
ATOM     10  C   UNL     1     -43.914 -19.502 -22.638  0.00  0.00    +0.000 A 
ATOM     11  C   UNL     1     -43.824 -19.951 -23.960  0.00  0.00    +0.000 A 
ATOM     12  C   UNL     1     -44.421 -19.217 -24.989  0.00  0.00    +0.000 A 
ATOM     13  C   UNL     1     -45.106 -18.033 -24.697  0.00  0.00    +0.000 A 
ATOM     14  C   UNL     1     -45.195 -17.584 -23.377  0.00  0.00    +0.000 A 
ATOM     15  C   UNL     1     -44.326 -19.694 -26.393  0.00  0.00    +0.000 C 
ENDBRANCH   5   9
BRANCH   1  16
ATOM     16  C   UNL     1     -46.422 -16.733 -19.436  0.00  0.00    +0.000 C 
ATOM     17  N   UNL     1     -45.594 -15.562 -19.407  0.00  0.00    +0.000 NA
ATOM     18  O   UNL     1     -47.366 -16.875 -18.615  0.00  0.00    +0.000 OA
BRANCH  17  20
ATOM     19  C   UNL     1     -46.117 -13.192 -18.861  0.00  0.00    +0.000 A 
ATOM     20  C   UNL     1     -45.740 -14.466 -18.501  0.00  0.00    +0.000 A 
ATOM     21  C   UNL     1     -45.534 -14.475 -17.134  0.00  0.00    +0.000 A 
ATOM     22  N   UNL     1     -46.134 -12.479 -17.720  0.00  0.00    +0.000 N 
ATOM     23  N   UNL     1     -45.785 -13.228 -16.687  0.00  0.00    +0.000 NA
BRANCH  22  25
ATOM     24  C   UNL     1     -46.887 -10.518 -18.960  0.00  0.00    +0.000 C 
ATOM     25  C   UNL     1     -46.451 -11.065 -17.613  0.00  0.00    +0.000 C 
ENDBRANCH  22  25
ENDBRANCH  17  20
ENDBRANCH   1  16
TORSDOF 4
ENDMDL
MODEL 2
REMARK VINA RESULT:      -6.0      4.668      6.964
REMARK  Name = ZINC000072238206 ZINC72238206 PubChem-95738335
REMARK  4 active torsions:
REMARK  status: ('A' for Active; 'I' for Inactive)
REMARK    1  A    between atoms: C_2  and  N_20
REMARK    2  A    between atoms: C_4  and  N_22
REMARK    3  A    between atoms: C_6  and  C_7
REMARK    4  A    between atoms: C_11  and  C_12
REMARK                            x       y       z     vdW  Elec       q    Type
REMARK                         _______ _______ _______ _____ _____    ______ ____
ROOT
ATOM      1  C   UNL     1     -44.771 -16.111 -23.566  0.00  0.00    +0.000 C 
ATOM      2  C   UNL     1     -43.277 -15.976 -23.867  0.00  0.00    +0.000 C 
ATOM      3  C   UNL     1     -42.900 -16.652 -25.179  0.00  0.00    +0.000 C 
ATOM      4  C   UNL     1     -43.429 -18.049 -25.242  0.00  0.00    +0.000 C 
ATOM      5  C   UNL     1     -45.222 -17.579 -23.505  0.00  0.00    +0.000 C 
ATOM      6  C   UNL     1     -45.325 -19.650 -24.915  0.00  0.00    +0.000 C 
ATOM      7  N   UNL     1     -44.661 -18.397 -24.586  0.00  0.00    +0.000 N 
ATOM      8  O   UNL     1     -42.805 -18.907 -25.923  0.00  0.00    +0.000 OA
ENDROOT
BRANCH   5   9
ATOM      9  C   UNL     1     -44.940 -18.189 -22.164  0.00  0.00    +0.000 A 
ATOM     10  C   UNL     1     -43.690 -18.752 -21.868  0.00  0.00    +0.000 A 
ATOM     11  C   UNL     1     -43.455 -19.324 -20.614  0.00  0.00    +0.000 A 
ATOM     12  C   UNL     1     -44.468 -19.336 -19.651  0.00  0.00    +0.000 A 
ATOM     13  C   UNL     1     -45.717 -18.779 -19.944  0.00  0.00    +0.000 A 
ATOM     14  C   UNL     1     -45.952 -18.208 -21.198  0.00  0.00    +0.000 A 
ATOM     15  C   UNL     1     -44.220 -19.943 -18.318  0.00  0.00    +0.000 C 
ENDBRANCH   5   9
BRANCH   1  16
ATOM     16  C   UNL     1     -45.617 -15.298 -24.497  0.00  0.00    +0.000 C 
ATOM     17  N   UNL     1     -45.037 -14.223 -25.247  0.00  0.00    +0.000 NA
ATOM     18  O   UNL     1     -46.844 -15.564 -24.593  0.00  0.00    +0.000 OA
BRANCH  17  20
ATOM     19  C   UNL     1     -46.045 -13.696 -27.461  0.00  0.00    +0.000 A 
ATOM     20  C   UNL     1     -45.741 -13.373 -26.158  0.00  0.00    +0.000 A 
ATOM     21  C   UNL     1     -46.231 -12.104 -25.911  0.00  0.00    +0.000 A 
ATOM     22  N   UNL     1     -46.706 -12.633 -27.956  0.00  0.00    +0.000 N 
ATOM     23  N   UNL     1     -46.819 -11.678 -27.047  0.00  0.00    +0.000 NA
BRANCH  22  25
ATOM     24  C   UNL     1     -46.159 -12.980 -30.307  0.00  0.00    +0.000 C 
ATOM     25  C   UNL     1     -47.205 -12.508 -29.315  0.00  0.00    +0.000 C 
ENDBRANCH  22  25
ENDBRANCH  17  20
ENDBRANCH   1  16
TORSDOF 4
ENDMDL
MODEL 3
REMARK VINA RESULT:      -5.9     14.453     17.498
REMARK  Name = ZINC000072238206 ZINC72238206 PubChem-95738335
REMARK  4 active torsions:
REMARK  status: ('A' for Active; 'I' for Inactive)
REMARK    1  A    between atoms: C_2  and  N_20
REMARK    2  A    between atoms: C_4  and  N_22
REMARK    3  A    between atoms: C_6  and  C_7
REMARK    4  A    between atoms: C_11  and  C_12
REMARK                            x       y       z     vdW  Elec       q    Type
REMARK                         _______ _______ _______ _____ _____    ______ ____
ROOT
ATOM      1  C   UNL     1     -44.996  -6.921 -32.797  0.00  0.00    +0.000 C 
ATOM      2  C   UNL     1     -43.798  -7.269 -31.911  0.00  0.00    +0.000 C 
ATOM      3  C   UNL     1     -44.234  -7.806 -30.554  0.00  0.00    +0.000 C 
ATOM      4  C   UNL     1     -45.248  -6.911 -29.916  0.00  0.00    +0.000 C 
ATOM      5  C   UNL     1     -45.925  -5.888 -32.141  0.00  0.00    +0.000 C 
ATOM      6  C   UNL     1     -47.346  -5.558 -30.101  0.00  0.00    +0.000 C 
ATOM      7  N   UNL     1     -46.175  -6.162 -30.721  0.00  0.00    +0.000 N 
ATOM      8  O   UNL     1     -45.312  -6.860 -28.658  0.00  0.00    +0.000 OA
ENDROOT
BRANCH   5   9
ATOM      9  C   UNL     1     -45.424  -4.488 -32.341  0.00  0.00    +0.000 A 
ATOM     10  C   UNL     1     -45.954  -3.662 -33.344  0.00  0.00    +0.000 A 
ATOM     11  C   UNL     1     -45.463  -2.365 -33.519  0.00  0.00    +0.000 A 
ATOM     12  C   UNL     1     -44.441  -1.888 -32.693  0.00  0.00    +0.000 A 
ATOM     13  C   UNL     1     -43.908  -2.710 -31.694  0.00  0.00    +0.000 A 
ATOM     14  C   UNL     1     -44.399  -4.007 -31.521  0.00  0.00    +0.000 A 
ATOM     15  C   UNL     1     -43.919  -0.509 -32.877  0.00  0.00    +0.000 C 
ENDBRANCH   5   9
BRANCH   1  16
ATOM     16  C   UNL     1     -45.738  -8.138 -33.257  0.00  0.00    +0.000 C 
ATOM     17  N   UNL     1     -45.056  -9.171 -33.980  0.00  0.00    +0.000 NA
ATOM     18  O   UNL     1     -46.971  -8.227 -33.015  0.00  0.00    +0.000 OA
BRANCH  17  20
ATOM     19  C   UNL     1     -46.328 -10.477 -35.674  0.00  0.00    +0.000 A 
ATOM     20  C   UNL     1     -45.656 -10.370 -34.477  0.00  0.00    +0.000 A 
ATOM     21  C   UNL     1     -45.680 -11.611 -33.867  0.00  0.00    +0.000 A 
ATOM     22  N   UNL     1     -46.727 -11.760 -35.756  0.00  0.00    +0.000 N 
ATOM     23  N   UNL     1     -46.352 -12.443 -34.686  0.00  0.00    +0.000 NA
BRANCH  22  25
ATOM     24  C   UNL     1     -46.928 -11.904 -38.182  0.00  0.00    +0.000 C 
ATOM     25  C   UNL     1     -47.500 -12.335 -36.844  0.00  0.00    +0.000 C 
ENDBRANCH  22  25
ENDBRANCH  17  20
ENDBRANCH   1  16
TORSDOF 4
ENDMDL
