MODEL 1
REMARK VINA RESULT:      -6.2      0.000      0.000
REMARK  Name = ZINC000005322760
REMARK  7 active torsions:
REMARK  status: ('A' for Active; 'I' for Inactive)
REMARK    1  A    between atoms: C_2  and  C_3
REMARK    2  A    between atoms: C_2  and  O_22
REMARK    3  A    between atoms: C_3  and  C_4
REMARK    4  A    between atoms: C_4  and  N_26
REMARK    5  A    between atoms: C_5  and  C_6
REMARK    6  A    between atoms: C_7  and  C_8
REMARK    7  A    between atoms: C_7  and  N_27
REMARK                            x       y       z     vdW  Elec       q    Type
REMARK                         _______ _______ _______ _____ _____    ______ ____
ROOT
ATOM      1  C   UNL     1     -46.750  -5.643 -28.709  0.00  0.00    +0.000 A 
ATOM      2  C   UNL     1     -47.122  -4.329 -28.398  0.00  0.00    +0.000 A 
ATOM      3  C   UNL     1     -47.082  -4.295 -27.017  0.00  0.00    +0.000 A 
ATOM      4  C   UNL     1     -46.710  -5.519 -26.566  0.00  0.00    +0.000 A 
ATOM      5  C   UNL     1     -46.826  -4.800 -24.339  0.00  0.00    +0.000 A 
ATOM      6  C   UNL     1     -46.692  -5.062 -22.966  0.00  0.00    +0.000 A 
ATOM      7  C   UNL     1     -46.278  -6.403 -22.463  0.00  0.00    +0.000 C 
ATOM      8  C   UNL     1     -46.950  -4.046 -22.048  0.00  0.00    +0.000 A 
ATOM      9  C   UNL     1     -47.337  -2.784 -22.493  0.00  0.00    +0.000 A 
ATOM     10  C   UNL     1     -47.463  -2.549 -23.861  0.00  0.00    +0.000 A 
ATOM     11  C   UNL     1     -47.344  -3.271 -26.114  0.00  0.00    +0.000 A 
ATOM     12  O   UNL     1     -47.691  -2.131 -26.528  0.00  0.00    +0.000 OA
ATOM     13  N   UNL     1     -46.492  -6.363 -27.583  0.00  0.00    +0.000 N 
ATOM     14  N   UNL     1     -46.575  -5.792 -25.248  0.00  0.00    +0.000 NA
ATOM     15  N   UNL     1     -47.213  -3.537 -24.771  0.00  0.00    +0.000 N 
ENDROOT
BRANCH   1  16
ATOM     16  C   UNL     1     -46.681  -6.160 -30.091  0.00  0.00    +0.000 C 
ATOM     17  O   UNL     1     -47.600  -6.910 -30.520  0.00  0.00    +0.000 OA
ATOM     18  N   UNL     1     -45.580  -5.832 -30.939  0.00  0.00    +0.000 NA
BRANCH  18  19
ATOM     19  C   UNL     1     -45.478  -6.325 -32.303  0.00  0.00    +0.000 C 
BRANCH  19  20
ATOM     20  C   UNL     1     -45.747  -5.195 -33.278  0.00  0.00    +0.000 C 
ATOM     21  C   UNL     1     -45.055  -3.939 -32.805  0.00  0.00    +0.000 C 
ATOM     22  C   UNL     1     -46.040  -2.850 -33.107  0.00  0.00    +0.000 C 
ATOM     23  C   UNL     1     -47.223  -3.582 -33.700  0.00  0.00    +0.000 C 
ATOM     24  O   UNL     1     -47.124  -4.937 -33.356  0.00  0.00    +0.000 OA
ENDBRANCH  19  20
ENDBRANCH  18  19
ENDBRANCH   1  16
BRANCH  13  25
ATOM     25  C   UNL     1     -46.070  -7.755 -27.456  0.00  0.00    +0.000 C 
BRANCH  25  26
ATOM     26  C   UNL     1     -47.275  -8.679 -27.380  0.00  0.00    +0.000 C 
BRANCH  26  27
ATOM     27  C   UNL     1     -47.238  -9.487 -26.098  0.00  0.00    +0.000 C 
BRANCH  27  29
ATOM     28  C   UNL     1     -46.187 -11.418 -25.927  0.00  0.00    +0.000 C 
ATOM     29  O   UNL     1     -47.366 -10.843 -26.397  0.00  0.00    +0.000 OA
ENDBRANCH  27  29
ENDBRANCH  26  27
ENDBRANCH  25  26
ENDBRANCH  13  25
TORSDOF 7
ENDMDL
MODEL 2
REMARK VINA RESULT:      -5.9      2.343      5.039
REMARK  Name = ZINC000005322760
REMARK  7 active torsions:
REMARK  status: ('A' for Active; 'I' for Inactive)
REMARK    1  A    between atoms: C_2  and  C_3
REMARK    2  A    between atoms: C_2  and  O_22
REMARK    3  A    between atoms: C_3  and  C_4
REMARK    4  A    between atoms: C_4  and  N_26
REMARK    5  A    between atoms: C_5  and  C_6
REMARK    6  A    between atoms: C_7  and  C_8
REMARK    7  A    between atoms: C_7  and  N_27
REMARK                            x       y       z     vdW  Elec       q    Type
REMARK                         _______ _______ _______ _____ _____    ______ ____
ROOT
ATOM      1  C   UNL     1     -46.694  -6.622 -29.364  0.00  0.00    +0.000 A 
ATOM      2  C   UNL     1     -46.502  -7.302 -28.154  0.00  0.00    +0.000 A 
ATOM      3  C   UNL     1     -46.668  -6.320 -27.195  0.00  0.00    +0.000 A 
ATOM      4  C   UNL     1     -46.936  -5.147 -27.822  0.00  0.00    +0.000 A 
ATOM      5  C   UNL     1     -47.099  -4.021 -25.774  0.00  0.00    +0.000 A 
ATOM      6  C   UNL     1     -47.323  -2.840 -25.047  0.00  0.00    +0.000 A 
ATOM      7  C   UNL     1     -47.623  -1.549 -25.728  0.00  0.00    +0.000 C 
ATOM      8  C   UNL     1     -47.264  -2.873 -23.655  0.00  0.00    +0.000 A 
ATOM      9  C   UNL     1     -46.986  -4.068 -22.996  0.00  0.00    +0.000 A 
ATOM     10  C   UNL     1     -46.768  -5.227 -23.739  0.00  0.00    +0.000 A 
ATOM     11  C   UNL     1     -46.605  -6.368 -25.808  0.00  0.00    +0.000 A 
ATOM     12  O   UNL     1     -46.355  -7.457 -25.220  0.00  0.00    +0.000 OA
ATOM     13  N   UNL     1     -46.965  -5.305 -29.152  0.00  0.00    +0.000 N 
ATOM     14  N   UNL     1     -47.154  -3.999 -27.141  0.00  0.00    +0.000 NA
ATOM     15  N   UNL     1     -46.823  -5.207 -25.104  0.00  0.00    +0.000 N 
ENDROOT
BRANCH   1  16
ATOM     16  C   UNL     1     -46.581  -7.272 -30.685  0.00  0.00    +0.000 C 
ATOM     17  O   UNL     1     -47.628  -7.608 -31.304  0.00  0.00    +0.000 OA
ATOM     18  N   UNL     1     -45.301  -7.537 -31.260  0.00  0.00    +0.000 NA
BRANCH  18  19
ATOM     19  C   UNL     1     -45.152  -8.179 -32.557  0.00  0.00    +0.000 C 
BRANCH  19  20
ATOM     20  C   UNL     1     -44.668  -9.605 -32.369  0.00  0.00    +0.000 C 
ATOM     21  C   UNL     1     -45.845 -10.550 -32.395  0.00  0.00    +0.000 C 
ATOM     22  C   UNL     1     -45.522 -11.556 -31.332  0.00  0.00    +0.000 C 
ATOM     23  C   UNL     1     -44.201 -11.082 -30.771  0.00  0.00    +0.000 C 
ATOM     24  O   UNL     1     -44.021  -9.740 -31.132  0.00  0.00    +0.000 OA
ENDBRANCH  19  20
ENDBRANCH  18  19
ENDBRANCH   1  16
BRANCH  13  25
ATOM     25  C   UNL     1     -47.235  -4.251 -30.126  0.00  0.00    +0.000 C 
BRANCH  25  26
ATOM     26  C   UNL     1     -45.942  -3.595 -30.582  0.00  0.00    +0.000 C 
BRANCH  26  27
ATOM     27  C   UNL     1     -45.638  -3.973 -32.019  0.00  0.00    +0.000 C 
BRANCH  27  29
ATOM     28  C   UNL     1     -46.943  -3.340 -33.679  0.00  0.00    +0.000 C 
ATOM     29  O   UNL     1     -46.823  -4.300 -32.676  0.00  0.00    +0.000 OA
ENDBRANCH  27  29
ENDBRANCH  26  27
ENDBRANCH  25  26
ENDBRANCH  13  25
TORSDOF 7
ENDMDL
MODEL 3
REMARK VINA RESULT:      -5.7      3.333      5.840
REMARK  Name = ZINC000005322760
REMARK  7 active torsions:
REMARK  status: ('A' for Active; 'I' for Inactive)
REMARK    1  A    between atoms: C_2  and  C_3
REMARK    2  A    between atoms: C_2  and  O_22
REMARK    3  A    between atoms: C_3  and  C_4
REMARK    4  A    between atoms: C_4  and  N_26
REMARK    5  A    between atoms: C_5  and  C_6
REMARK    6  A    between atoms: C_7  and  C_8
REMARK    7  A    between atoms: C_7  and  N_27
REMARK                            x       y       z     vdW  Elec       q    Type
REMARK                         _______ _______ _______ _____ _____    ______ ____
ROOT
ATOM      1  C   UNL     1     -46.581  -5.829 -29.293  0.00  0.00    +0.000 A 
ATOM      2  C   UNL     1     -46.255  -6.003 -27.942  0.00  0.00    +0.000 A 
ATOM      3  C   UNL     1     -46.306  -7.373 -27.765  0.00  0.00    +0.000 A 
ATOM      4  C   UNL     1     -46.644  -7.948 -28.946  0.00  0.00    +0.000 A 
ATOM      5  C   UNL     1     -46.544 -10.089 -28.002  0.00  0.00    +0.000 A 
ATOM      6  C   UNL     1     -46.664 -11.483 -28.127  0.00  0.00    +0.000 A 
ATOM      7  C   UNL     1     -47.030 -12.122 -29.424  0.00  0.00    +0.000 C 
ATOM      8  C   UNL     1     -46.437 -12.291 -27.015  0.00  0.00    +0.000 A 
ATOM      9  C   UNL     1     -46.093 -11.718 -25.794  0.00  0.00    +0.000 A 
ATOM     10  C   UNL     1     -45.979 -10.332 -25.695  0.00  0.00    +0.000 A 
ATOM     11  C   UNL     1     -46.076  -8.166 -26.647  0.00  0.00    +0.000 A 
ATOM     12  O   UNL     1     -45.763  -7.636 -25.545  0.00  0.00    +0.000 OA
ATOM     13  N   UNL     1     -46.811  -7.024 -29.902  0.00  0.00    +0.000 N 
ATOM     14  N   UNL     1     -46.766  -9.287 -29.088  0.00  0.00    +0.000 NA
ATOM     15  N   UNL     1     -46.199  -9.529 -26.777  0.00  0.00    +0.000 N 
ENDROOT
BRANCH   1  16
ATOM     16  C   UNL     1     -46.683  -4.504 -29.938  0.00  0.00    +0.000 C 
ATOM     17  O   UNL     1     -47.753  -3.845 -29.837  0.00  0.00    +0.000 OA
ATOM     18  N   UNL     1     -45.589  -3.971 -30.686  0.00  0.00    +0.000 NA
BRANCH  18  19
ATOM     19  C   UNL     1     -45.655  -2.673 -31.337  0.00  0.00    +0.000 C 
BRANCH  19  20
ATOM     20  C   UNL     1     -44.270  -2.259 -31.795  0.00  0.00    +0.000 C 
ATOM     21  C   UNL     1     -44.243  -0.772 -32.057  0.00  0.00    +0.000 C 
ATOM     22  C   UNL     1     -43.398  -0.639 -33.288  0.00  0.00    +0.000 C 
ATOM     23  C   UNL     1     -43.038  -2.064 -33.639  0.00  0.00    +0.000 C 
ATOM     24  O   UNL     1     -43.932  -2.922 -32.984  0.00  0.00    +0.000 OA
ENDBRANCH  19  20
ENDBRANCH  18  19
ENDBRANCH   1  16
BRANCH  13  25
ATOM     25  C   UNL     1     -47.168  -7.296 -31.292  0.00  0.00    +0.000 C 
BRANCH  25  26
ATOM     26  C   UNL     1     -45.930  -7.289 -32.176  0.00  0.00    +0.000 C 
BRANCH  26  27
ATOM     27  C   UNL     1     -46.282  -6.802 -33.569  0.00  0.00    +0.000 C 
BRANCH  27  29
ATOM     28  C   UNL     1     -44.141  -6.311 -33.762  0.00  0.00    +0.000 C 
ATOM     29  O   UNL     1     -45.415  -5.775 -33.937  0.00  0.00    +0.000 OA
ENDBRANCH  27  29
ENDBRANCH  26  27
ENDBRANCH  25  26
ENDBRANCH  13  25
TORSDOF 7
ENDMDL
