MODEL 1
REMARK VINA RESULT:      -5.7      0.000      0.000
REMARK  Name = ZINC000003420494 ZINC03420494 PubChem-2539725
REMARK  7 active torsions:
REMARK  status: ('A' for Active; 'I' for Inactive)
REMARK    1  A    between atoms: C_2  and  C_3
REMARK    2  A    between atoms: C_2  and  O_23
REMARK    3  A    between atoms: C_4  and  N_25
REMARK    4  A    between atoms: C_6  and  N_26
REMARK    5  A    between atoms: C_9  and  O_20
REMARK    6  A    between atoms: C_11  and  C_12
REMARK    7  A    between atoms: C_11  and  O_23
REMARK                            x       y       z     vdW  Elec       q    Type
REMARK                         _______ _______ _______ _____ _____    ______ ____
ROOT
ATOM      1  C   UNL     1     -46.319 -14.579 -21.720  0.00  0.00    +0.000 C 
ATOM      2  O   UNL     1     -47.261 -14.006 -21.108  0.00  0.00    +0.000 OA
ATOM      3  N   UNL     1     -46.281 -14.501 -23.152  0.00  0.00    +0.000 NA
ENDROOT
BRANCH   3   4
ATOM      4  C   UNL     1     -45.469 -15.277 -24.048  0.00  0.00    +0.000 A 
ATOM      5  C   UNL     1     -45.825 -16.584 -24.411  0.00  0.00    +0.000 A 
ATOM      6  C   UNL     1     -45.044 -17.323 -25.308  0.00  0.00    +0.000 A 
ATOM      7  C   UNL     1     -43.895 -16.739 -25.853  0.00  0.00    +0.000 A 
ATOM      8  C   UNL     1     -43.535 -15.435 -25.508  0.00  0.00    +0.000 A 
ATOM      9  C   UNL     1     -44.320 -14.694 -24.608  0.00  0.00    +0.000 A 
BRANCH   6  12
ATOM     10  O   UNL     1     -46.411 -19.202 -25.124  0.00  0.00    +0.000 OA
ATOM     11  O   UNL     1     -44.702 -19.360 -26.601  0.00  0.00    +0.000 OA
ATOM     12  N   UNL     1     -45.425 -18.659 -25.663  0.00  0.00    +0.000 N 
ENDBRANCH   6  12
BRANCH   9  14
ATOM     13  C   UNL     1     -44.147 -12.281 -25.139  0.00  0.00    +0.000 C 
ATOM     14  O   UNL     1     -43.975 -13.384 -24.258  0.00  0.00    +0.000 OA
ENDBRANCH   9  14
ENDBRANCH   3   4
BRANCH   1  16
ATOM     15  C   UNL     1     -44.138 -14.373 -20.480  0.00  0.00    +0.000 C 
ATOM     16  C   UNL     1     -45.256 -15.296 -20.941  0.00  0.00    +0.000 C 
BRANCH  16  17
ATOM     17  O   UNL     1     -45.799 -16.071 -19.870  0.00  0.00    +0.000 OA
BRANCH  17  18
ATOM     18  C   UNL     1     -45.900 -17.468 -19.866  0.00  0.00    +0.000 C 
ATOM     19  O   UNL     1     -46.874 -18.045 -19.310  0.00  0.00    +0.000 OA
BRANCH  18  20
ATOM     20  C   UNL     1     -44.852 -18.265 -20.512  0.00  0.00    +0.000 A 
ATOM     21  C   UNL     1     -44.932 -18.796 -21.805  0.00  0.00    +0.000 A 
ATOM     22  C   UNL     1     -43.764 -19.496 -22.105  0.00  0.00    +0.000 A 
ATOM     23  C   UNL     1     -42.840 -19.516 -21.131  0.00  0.00    +0.000 A 
ATOM     24  C   UNL     1     -41.619 -20.260 -21.472  0.00  0.00    +0.000 C 
ATOM     25  C   UNL     1     -41.926 -20.742 -22.906  0.00  0.00    +0.000 C 
ATOM     26  C   UNL     1     -43.332 -20.234 -23.303  0.00  0.00    +0.000 C 
ATOM     27  S   UNL     1     -43.366 -18.668 -19.787  0.00  0.00    +0.000 S 
ENDBRANCH  18  20
ENDBRANCH  17  18
ENDBRANCH  16  17
ENDBRANCH   1  16
TORSDOF 7
ENDMDL
MODEL 2
REMARK VINA RESULT:      -5.5      9.532     14.077
REMARK  Name = ZINC000003420494 ZINC03420494 PubChem-2539725
REMARK  7 active torsions:
REMARK  status: ('A' for Active; 'I' for Inactive)
REMARK    1  A    between atoms: C_2  and  C_3
REMARK    2  A    between atoms: C_2  and  O_23
REMARK    3  A    between atoms: C_4  and  N_25
REMARK    4  A    between atoms: C_6  and  N_26
REMARK    5  A    between atoms: C_9  and  O_20
REMARK    6  A    between atoms: C_11  and  C_12
REMARK    7  A    between atoms: C_11  and  O_23
REMARK                            x       y       z     vdW  Elec       q    Type
REMARK                         _______ _______ _______ _____ _____    ______ ____
ROOT
ATOM      1  C   UNL     1     -44.341  -6.738 -28.761  0.00  0.00    +0.000 C 
ATOM      2  O   UNL     1     -43.399  -5.903 -28.799  0.00  0.00    +0.000 OA
ATOM      3  N   UNL     1     -44.036  -8.130 -28.931  0.00  0.00    +0.000 NA
ENDROOT
BRANCH   3   4
ATOM      4  C   UNL     1     -44.957  -9.203 -29.178  0.00  0.00    +0.000 A 
ATOM      5  C   UNL     1     -45.531  -9.932 -28.127  0.00  0.00    +0.000 A 
ATOM      6  C   UNL     1     -46.451 -10.957 -28.374  0.00  0.00    +0.000 A 
ATOM      7  C   UNL     1     -46.806 -11.249 -29.697  0.00  0.00    +0.000 A 
ATOM      8  C   UNL     1     -46.251 -10.525 -30.752  0.00  0.00    +0.000 A 
ATOM      9  C   UNL     1     -45.327  -9.495 -30.501  0.00  0.00    +0.000 A 
BRANCH   6  12
ATOM     10  O   UNL     1     -47.444 -12.854 -27.453  0.00  0.00    +0.000 OA
ATOM     11  O   UNL     1     -47.119 -11.118 -26.036  0.00  0.00    +0.000 OA
ATOM     12  N   UNL     1     -47.023 -11.691 -27.284  0.00  0.00    +0.000 N 
ENDBRANCH   6  12
BRANCH   9  14
ATOM     13  C   UNL     1     -45.479  -7.738 -32.241  0.00  0.00    +0.000 C 
ATOM     14  O   UNL     1     -44.767  -8.757 -31.549  0.00  0.00    +0.000 OA
ENDBRANCH   9  14
ENDBRANCH   3   4
BRANCH   1  16
ATOM     15  C   UNL     1     -46.178  -6.440 -27.065  0.00  0.00    +0.000 C 
ATOM     16  C   UNL     1     -45.743  -6.264 -28.512  0.00  0.00    +0.000 C 
BRANCH  16  17
ATOM     17  O   UNL     1     -45.957  -4.933 -28.988  0.00  0.00    +0.000 OA
BRANCH  17  18
ATOM     18  C   UNL     1     -46.247  -4.596 -30.316  0.00  0.00    +0.000 C 
ATOM     19  O   UNL     1     -47.276  -5.048 -30.889  0.00  0.00    +0.000 OA
BRANCH  18  20
ATOM     20  C   UNL     1     -45.335  -3.711 -31.047  0.00  0.00    +0.000 A 
ATOM     21  C   UNL     1     -45.478  -2.322 -31.151  0.00  0.00    +0.000 A 
ATOM     22  C   UNL     1     -44.437  -1.793 -31.913  0.00  0.00    +0.000 A 
ATOM     23  C   UNL     1     -43.548  -2.687 -32.373  0.00  0.00    +0.000 A 
ATOM     24  C   UNL     1     -42.462  -2.104 -33.173  0.00  0.00    +0.000 C 
ATOM     25  C   UNL     1     -42.818  -0.601 -33.151  0.00  0.00    +0.000 C 
ATOM     26  C   UNL     1     -44.112  -0.416 -32.324  0.00  0.00    +0.000 C 
ATOM     27  S   UNL     1     -43.950  -4.237 -31.887  0.00  0.00    +0.000 S 
ENDBRANCH  18  20
ENDBRANCH  17  18
ENDBRANCH  16  17
ENDBRANCH   1  16
TORSDOF 7
ENDMDL
MODEL 3
REMARK VINA RESULT:      -5.5     11.859     15.029
REMARK  Name = ZINC000003420494 ZINC03420494 PubChem-2539725
REMARK  7 active torsions:
REMARK  status: ('A' for Active; 'I' for Inactive)
REMARK    1  A    between atoms: C_2  and  C_3
REMARK    2  A    between atoms: C_2  and  O_23
REMARK    3  A    between atoms: C_4  and  N_25
REMARK    4  A    between atoms: C_6  and  N_26
REMARK    5  A    between atoms: C_9  and  O_20
REMARK    6  A    between atoms: C_11  and  C_12
REMARK    7  A    between atoms: C_11  and  O_23
REMARK                            x       y       z     vdW  Elec       q    Type
REMARK                         _______ _______ _______ _____ _____    ______ ____
ROOT
ATOM      1  C   UNL     1     -45.380  -7.591 -31.041  0.00  0.00    +0.000 C 
ATOM      2  O   UNL     1     -44.641  -8.502 -30.581  0.00  0.00    +0.000 OA
ATOM      3  N   UNL     1     -44.840  -6.697 -32.025  0.00  0.00    +0.000 NA
ENDROOT
BRANCH   3   4
ATOM      4  C   UNL     1     -45.403  -5.457 -32.482  0.00  0.00    +0.000 A 
ATOM      5  C   UNL     1     -45.056  -4.234 -31.890  0.00  0.00    +0.000 A 
ATOM      6  C   UNL     1     -45.586  -3.027 -32.360  0.00  0.00    +0.000 A 
ATOM      7  C   UNL     1     -46.471  -3.047 -33.445  0.00  0.00    +0.000 A 
ATOM      8  C   UNL     1     -46.816  -4.257 -34.050  0.00  0.00    +0.000 A 
ATOM      9  C   UNL     1     -46.282  -5.468 -33.577  0.00  0.00    +0.000 A 
BRANCH   6  12
ATOM     10  O   UNL     1     -45.598  -1.525 -30.577  0.00  0.00    +0.000 OA
ATOM     11  O   UNL     1     -44.451  -0.871 -32.416  0.00  0.00    +0.000 OA
ATOM     12  N   UNL     1     -45.221  -1.788 -31.737  0.00  0.00    +0.000 N 
ENDBRANCH   6  12
BRANCH   9  14
ATOM     13  C   UNL     1     -46.095  -7.091 -35.439  0.00  0.00    +0.000 C 
ATOM     14  O   UNL     1     -46.614  -6.687 -34.178  0.00  0.00    +0.000 OA
ENDBRANCH   9  14
ENDBRANCH   3   4
BRANCH   1  16
ATOM     15  C   UNL     1     -47.414  -8.832 -30.227  0.00  0.00    +0.000 C 
ATOM     16  C   UNL     1     -46.803  -7.483 -30.575  0.00  0.00    +0.000 C 
BRANCH  16  17
ATOM     17  O   UNL     1     -46.956  -6.527 -29.524  0.00  0.00    +0.000 OA
BRANCH  17  18
ATOM     18  C   UNL     1     -46.605  -6.746 -28.185  0.00  0.00    +0.000 C 
ATOM     19  O   UNL     1     -46.129  -7.854 -27.814  0.00  0.00    +0.000 OA
BRANCH  18  20
ATOM     20  C   UNL     1     -46.803  -5.673 -27.207  0.00  0.00    +0.000 A 
ATOM     21  C   UNL     1     -47.052  -4.332 -27.527  0.00  0.00    +0.000 A 
ATOM     22  C   UNL     1     -47.193  -3.583 -26.359  0.00  0.00    +0.000 A 
ATOM     23  C   UNL     1     -47.065  -4.272 -25.214  0.00  0.00    +0.000 A 
ATOM     24  C   UNL     1     -47.217  -3.460 -23.999  0.00  0.00    +0.000 C 
ATOM     25  C   UNL     1     -47.478  -2.055 -24.583  0.00  0.00    +0.000 C 
ATOM     26  C   UNL     1     -47.458  -2.154 -26.126  0.00  0.00    +0.000 C 
ATOM     27  S   UNL     1     -46.764  -5.891 -25.519  0.00  0.00    +0.000 S 
ENDBRANCH  18  20
ENDBRANCH  17  18
ENDBRANCH  16  17
ENDBRANCH   1  16
TORSDOF 7
ENDMDL
