MODEL 1
REMARK VINA RESULT:      -6.3      0.000      0.000
REMARK  Name = ZINC000020530889
REMARK  7 active torsions:
REMARK  status: ('A' for Active; 'I' for Inactive)
REMARK    1  A    between atoms: C_2  and  O_23
REMARK    2  A    between atoms: C_6  and  C_7
REMARK    3  A    between atoms: C_11  and  C_12
REMARK    4  A    between atoms: C_14  and  O_26
REMARK    5  A    between atoms: C_16  and  O_27
REMARK    6  A    between atoms: C_18  and  O_28
REMARK    7  A    between atoms: C_21  and  O_29
REMARK                            x       y       z     vdW  Elec       q    Type
REMARK                         _______ _______ _______ _____ _____    ______ ____
ROOT
ATOM      1  C   UNL     1     -43.600 -18.423 -23.367  0.00  0.00    +0.000 C 
ATOM      2  C   UNL     1     -43.738 -19.636 -24.298  0.00  0.00    +0.000 C 
ATOM      3  C   UNL     1     -45.031 -19.595 -25.045  0.00  0.00    +0.000 C 
ATOM      4  C   UNL     1     -45.047 -17.128 -24.854  0.00  0.00    +0.000 C 
ATOM      5  C   UNL     1     -45.063 -14.575 -24.949  0.00  0.00    +0.000 C 
ATOM      6  O   UNL     1     -45.581 -20.663 -25.419  0.00  0.00    +0.000 OA
ATOM      7  O   UNL     1     -44.161 -14.460 -24.074  0.00  0.00    +0.000 OA
ATOM      8  N   UNL     1     -45.626 -18.336 -25.354  0.00  0.00    +0.000 NA
ATOM      9  N   UNL     1     -45.524 -15.873 -25.352  0.00  0.00    +0.000 NA
ATOM     10  N   UNL     1     -44.093 -17.177 -23.968  0.00  0.00    +0.000 NA
ENDROOT
BRANCH   1  15
ATOM     11  C   UNL     1     -44.105 -19.465 -19.726  0.00  0.00    +0.000 A 
ATOM     12  C   UNL     1     -45.460 -19.135 -19.556  0.00  0.00    +0.000 A 
ATOM     13  C   UNL     1     -46.198 -18.585 -20.600  0.00  0.00    +0.000 A 
ATOM     14  C   UNL     1     -45.592 -18.354 -21.831  0.00  0.00    +0.000 A 
ATOM     15  C   UNL     1     -44.242 -18.670 -22.029  0.00  0.00    +0.000 A 
ATOM     16  C   UNL     1     -43.484 -19.231 -20.982  0.00  0.00    +0.000 A 
BRANCH  11  18
ATOM     17  C   UNL     1     -42.592 -19.239 -17.774  0.00  0.00    +0.000 C 
ATOM     18  O   UNL     1     -43.382 -20.018 -18.664  0.00  0.00    +0.000 OA
ENDBRANCH  11  18
BRANCH  16  20
ATOM     19  C   UNL     1     -41.609 -20.838 -21.426  0.00  0.00    +0.000 C 
ATOM     20  O   UNL     1     -42.135 -19.532 -21.239  0.00  0.00    +0.000 OA
ENDBRANCH  16  20
ENDBRANCH   1  15
BRANCH   5  21
ATOM     21  C   UNL     1     -45.649 -13.369 -25.558  0.00  0.00    +0.000 A 
ATOM     22  C   UNL     1     -45.635 -12.151 -24.875  0.00  0.00    +0.000 A 
ATOM     23  C   UNL     1     -46.191 -10.997 -25.448  0.00  0.00    +0.000 A 
ATOM     24  C   UNL     1     -46.771 -11.056 -26.726  0.00  0.00    +0.000 A 
ATOM     25  C   UNL     1     -46.788 -12.289 -27.426  0.00  0.00    +0.000 A 
ATOM     26  C   UNL     1     -46.225 -13.428 -26.830  0.00  0.00    +0.000 A 
BRANCH  23  28
ATOM     27  C   UNL     1     -45.022  -8.955 -24.674  0.00  0.00    +0.000 C 
ATOM     28  O   UNL     1     -46.178  -9.777 -24.762  0.00  0.00    +0.000 OA
ENDBRANCH  23  28
BRANCH  24  30
ATOM     29  C   UNL     1     -46.656  -9.009 -28.170  0.00  0.00    +0.000 C 
ATOM     30  O   UNL     1     -47.310  -9.866 -27.245  0.00  0.00    +0.000 OA
ENDBRANCH  24  30
BRANCH  25  32
ATOM     31  C   UNL     1     -46.600 -12.636 -29.875  0.00  0.00    +0.000 C 
ATOM     32  O   UNL     1     -47.359 -12.379 -28.701  0.00  0.00    +0.000 OA
ENDBRANCH  25  32
ENDBRANCH   5  21
TORSDOF 7
ENDMDL
MODEL 2
REMARK VINA RESULT:      -6.2      0.113      2.213
REMARK  Name = ZINC000020530889
REMARK  7 active torsions:
REMARK  status: ('A' for Active; 'I' for Inactive)
REMARK    1  A    between atoms: C_2  and  O_23
REMARK    2  A    between atoms: C_6  and  C_7
REMARK    3  A    between atoms: C_11  and  C_12
REMARK    4  A    between atoms: C_14  and  O_26
REMARK    5  A    between atoms: C_16  and  O_27
REMARK    6  A    between atoms: C_18  and  O_28
REMARK    7  A    between atoms: C_21  and  O_29
REMARK                            x       y       z     vdW  Elec       q    Type
REMARK                         _______ _______ _______ _____ _____    ______ ____
ROOT
ATOM      1  C   UNL     1     -43.568 -18.456 -23.437  0.00  0.00    +0.000 C 
ATOM      2  C   UNL     1     -43.742 -19.668 -24.364  0.00  0.00    +0.000 C 
ATOM      3  C   UNL     1     -45.051 -19.611 -25.081  0.00  0.00    +0.000 C 
ATOM      4  C   UNL     1     -45.031 -17.144 -24.891  0.00  0.00    +0.000 C 
ATOM      5  C   UNL     1     -45.017 -14.591 -24.986  0.00  0.00    +0.000 C 
ATOM      6  O   UNL     1     -45.622 -20.672 -25.443  0.00  0.00    +0.000 OA
ATOM      7  O   UNL     1     -44.095 -14.487 -24.132  0.00  0.00    +0.000 OA
ATOM      8  N   UNL     1     -45.637 -18.344 -25.378  0.00  0.00    +0.000 NA
ATOM      9  N   UNL     1     -45.503 -15.883 -25.379  0.00  0.00    +0.000 NA
ATOM     10  N   UNL     1     -44.059 -17.205 -24.027  0.00  0.00    +0.000 NA
ENDROOT
BRANCH   1  15
ATOM     11  C   UNL     1     -44.001 -19.477 -19.780  0.00  0.00    +0.000 A 
ATOM     12  C   UNL     1     -45.353 -19.146 -19.585  0.00  0.00    +0.000 A 
ATOM     13  C   UNL     1     -46.111 -18.601 -20.617  0.00  0.00    +0.000 A 
ATOM     14  C   UNL     1     -45.529 -18.377 -21.861  0.00  0.00    +0.000 A 
ATOM     15  C   UNL     1     -44.183 -18.696 -22.084  0.00  0.00    +0.000 A 
ATOM     16  C   UNL     1     -43.405 -19.251 -21.049  0.00  0.00    +0.000 A 
BRANCH  11  18
ATOM     17  C   UNL     1     -42.760 -19.251 -17.645  0.00  0.00    +0.000 C 
ATOM     18  O   UNL     1     -43.257 -20.025 -18.729  0.00  0.00    +0.000 OA
ENDBRANCH  11  18
BRANCH  16  20
ATOM     19  C   UNL     1     -41.541 -20.862 -21.524  0.00  0.00    +0.000 C 
ATOM     20  O   UNL     1     -42.062 -19.554 -21.331  0.00  0.00    +0.000 OA
ENDBRANCH  16  20
ENDBRANCH   1  15
BRANCH   5  21
ATOM     21  C   UNL     1     -45.601 -13.377 -25.583  0.00  0.00    +0.000 A 
ATOM     22  C   UNL     1     -46.165 -13.415 -26.860  0.00  0.00    +0.000 A 
ATOM     23  C   UNL     1     -46.723 -12.265 -27.436  0.00  0.00    +0.000 A 
ATOM     24  C   UNL     1     -46.721 -11.052 -26.727  0.00  0.00    +0.000 A 
ATOM     25  C   UNL     1     -46.151 -11.005 -25.430  0.00  0.00    +0.000 A 
ATOM     26  C   UNL     1     -45.599 -12.171 -24.878  0.00  0.00    +0.000 A 
BRANCH  23  28
ATOM     27  C   UNL     1     -46.505 -12.353 -29.902  0.00  0.00    +0.000 C 
ATOM     28  O   UNL     1     -47.287 -12.304 -28.717  0.00  0.00    +0.000 OA
ENDBRANCH  23  28
BRANCH  24  30
ATOM     29  C   UNL     1     -46.575  -8.937 -28.067  0.00  0.00    +0.000 C 
ATOM     30  O   UNL     1     -47.296  -9.935 -27.359  0.00  0.00    +0.000 OA
ENDBRANCH  24  30
BRANCH  25  32
ATOM     31  C   UNL     1     -44.954  -9.047 -24.488  0.00  0.00    +0.000 C 
ATOM     32  O   UNL     1     -46.134  -9.811 -24.700  0.00  0.00    +0.000 OA
ENDBRANCH  25  32
ENDBRANCH   5  21
TORSDOF 7
ENDMDL
MODEL 3
REMARK VINA RESULT:      -6.0      2.086      2.532
REMARK  Name = ZINC000020530889
REMARK  7 active torsions:
REMARK  status: ('A' for Active; 'I' for Inactive)
REMARK    1  A    between atoms: C_2  and  O_23
REMARK    2  A    between atoms: C_6  and  C_7
REMARK    3  A    between atoms: C_11  and  C_12
REMARK    4  A    between atoms: C_14  and  O_26
REMARK    5  A    between atoms: C_16  and  O_27
REMARK    6  A    between atoms: C_18  and  O_28
REMARK    7  A    between atoms: C_21  and  O_29
REMARK                            x       y       z     vdW  Elec       q    Type
REMARK                         _______ _______ _______ _____ _____    ______ ____
ROOT
ATOM      1  C   UNL     1     -44.430 -17.345 -22.808  0.00  0.00    +0.000 C 
ATOM      2  C   UNL     1     -44.516 -18.576 -23.722  0.00  0.00    +0.000 C 
ATOM      3  C   UNL     1     -45.695 -18.485 -24.635  0.00  0.00    +0.000 C 
ATOM      4  C   UNL     1     -45.590 -16.017 -24.502  0.00  0.00    +0.000 C 
ATOM      5  C   UNL     1     -45.442 -13.470 -24.653  0.00  0.00    +0.000 C 
ATOM      6  O   UNL     1     -46.254 -19.531 -25.056  0.00  0.00    +0.000 OA
ATOM      7  O   UNL     1     -44.657 -13.380 -23.669  0.00  0.00    +0.000 OA
ATOM      8  N   UNL     1     -46.169 -17.204 -25.048  0.00  0.00    +0.000 NA
ATOM      9  N   UNL     1     -45.922 -14.752 -25.086  0.00  0.00    +0.000 NA
ATOM     10  N   UNL     1     -44.765 -16.093 -23.496  0.00  0.00    +0.000 NA
ENDROOT
BRANCH   1  15
ATOM     11  C   UNL     1     -46.174 -16.622 -19.486  0.00  0.00    +0.000 A 
ATOM     12  C   UNL     1     -46.782 -17.865 -19.245  0.00  0.00    +0.000 A 
ATOM     13  C   UNL     1     -46.632 -18.919 -20.142  0.00  0.00    +0.000 A 
ATOM     14  C   UNL     1     -45.873 -18.746 -21.294  0.00  0.00    +0.000 A 
ATOM     15  C   UNL     1     -45.256 -17.517 -21.562  0.00  0.00    +0.000 A 
ATOM     16  C   UNL     1     -45.397 -16.443 -20.661  0.00  0.00    +0.000 A 
BRANCH  11  18
ATOM     17  C   UNL     1     -47.385 -14.619 -18.664  0.00  0.00    +0.000 C 
ATOM     18  O   UNL     1     -46.337 -15.575 -18.571  0.00  0.00    +0.000 OA
ENDBRANCH  11  18
BRANCH  16  20
ATOM     19  C   UNL     1     -43.616 -14.711 -20.307  0.00  0.00    +0.000 C 
ATOM     20  O   UNL     1     -44.753 -15.235 -20.979  0.00  0.00    +0.000 OA
ENDBRANCH  16  20
ENDBRANCH   1  15
BRANCH   5  21
ATOM     21  C   UNL     1     -45.869 -12.252 -25.362  0.00  0.00    +0.000 A 
ATOM     22  C   UNL     1     -45.893 -11.020 -24.704  0.00  0.00    +0.000 A 
ATOM     23  C   UNL     1     -46.299  -9.855 -25.370  0.00  0.00    +0.000 A 
ATOM     24  C   UNL     1     -46.688  -9.916 -26.719  0.00  0.00    +0.000 A 
ATOM     25  C   UNL     1     -46.667 -11.162 -27.394  0.00  0.00    +0.000 A 
ATOM     26  C   UNL     1     -46.256 -12.312 -26.703  0.00  0.00    +0.000 A 
BRANCH  23  28
ATOM     27  C   UNL     1     -45.173  -7.799 -24.570  0.00  0.00    +0.000 C 
ATOM     28  O   UNL     1     -46.323  -8.621 -24.709  0.00  0.00    +0.000 OA
ENDBRANCH  23  28
BRANCH  24  30
ATOM     29  C   UNL     1     -46.346  -8.024 -28.329  0.00  0.00    +0.000 C 
ATOM     30  O   UNL     1     -47.084  -8.713 -27.330  0.00  0.00    +0.000 OA
ENDBRANCH  24  30
BRANCH  25  32
ATOM     31  C   UNL     1     -46.861 -12.426 -29.519  0.00  0.00    +0.000 C 
ATOM     32  O   UNL     1     -47.050 -11.254 -28.737  0.00  0.00    +0.000 OA
ENDBRANCH  25  32
ENDBRANCH   5  21
TORSDOF 7
ENDMDL
