MODEL 1
REMARK VINA RESULT:      -6.4      0.000      0.000
REMARK  Name = ZINC000065211166 MolPort-010-919-017
REMARK  6 active torsions:
REMARK  status: ('A' for Active; 'I' for Inactive)
REMARK    1  A    between atoms: C_3  and  C_4
REMARK    2  A    between atoms: C_5  and  S_27
REMARK    3  A    between atoms: C_6  and  C_7
REMARK    4  A    between atoms: C_6  and  S_27
REMARK    5  A    between atoms: C_8  and  C_9
REMARK    6  A    between atoms: C_8  and  N_23
REMARK                            x       y       z     vdW  Elec       q    Type
REMARK                         _______ _______ _______ _____ _____    ______ ____
ROOT
ATOM      1  C   UNL     1     -46.148 -14.288 -22.730  0.00  0.00    +0.000 C 
ENDROOT
BRANCH   1   2
ATOM      2  C   UNL     1     -45.937 -15.164 -23.915  0.00  0.00    +0.000 C 
ATOM      3  N   UNL     1     -44.646 -15.720 -24.166  0.00  0.00    +0.000 NA
ATOM      4  O   UNL     1     -46.900 -15.402 -24.690  0.00  0.00    +0.000 OA
BRANCH   3   5
ATOM      5  C   UNL     1     -44.392 -16.599 -25.296  0.00  0.00    +0.000 C 
BRANCH   5   6
ATOM      6  C   UNL     1     -43.776 -17.877 -24.811  0.00  0.00    +0.000 A 
ATOM      7  C   UNL     1     -42.384 -17.959 -24.595  0.00  0.00    +0.000 A 
ATOM      8  C   UNL     1     -41.489 -16.784 -24.809  0.00  0.00    +0.000 C 
ATOM      9  C   UNL     1     -41.814 -19.161 -24.169  0.00  0.00    +0.000 A 
ATOM     10  C   UNL     1     -42.613 -20.286 -23.959  0.00  0.00    +0.000 A 
ATOM     11  C   UNL     1     -41.999 -21.561 -23.506  0.00  0.00    +0.000 C 
ATOM     12  C   UNL     1     -43.990 -20.214 -24.178  0.00  0.00    +0.000 A 
ATOM     13  C   UNL     1     -44.576 -19.020 -24.605  0.00  0.00    +0.000 A 
ATOM     14  C   UNL     1     -46.051 -18.991 -24.829  0.00  0.00    +0.000 C 
ENDBRANCH   5   6
ENDBRANCH   3   5
ENDBRANCH   1   2
BRANCH   1  15
ATOM     15  S   UNL     1     -44.812 -14.542 -21.525  0.00  0.00    +0.000 S 
BRANCH  15  17
ATOM     16  C   UNL     1     -46.078 -16.290 -19.692  0.00  0.00    +0.000 A 
ATOM     17  C   UNL     1     -45.963 -14.978 -20.218  0.00  0.00    +0.000 A 
ATOM     18  C   UNL     1     -47.611 -14.184 -18.692  0.00  0.00    +0.000 A 
ATOM     19  C   UNL     1     -47.756 -15.454 -18.143  0.00  0.00    +0.000 A 
ATOM     20  C   UNL     1     -46.987 -16.501 -18.646  0.00  0.00    +0.000 A 
ATOM     21  N   UNL     1     -46.728 -13.977 -19.702  0.00  0.00    +0.000 NA
BRANCH  16  24
ATOM     22  C   UNL     1     -42.544 -19.685 -20.192  0.00  0.00    +0.000 C 
ATOM     23  C   UNL     1     -43.789 -18.893 -20.367  0.00  0.00    +0.000 A 
ATOM     24  C   UNL     1     -45.293 -17.456 -20.168  0.00  0.00    +0.000 A 
ATOM     25  N   UNL     1     -44.099 -17.806 -19.639  0.00  0.00    +0.000 NA
ATOM     26  N   UNL     1     -45.673 -18.294 -21.154  0.00  0.00    +0.000 NA
ATOM     27  O   UNL     1     -44.717 -19.167 -21.248  0.00  0.00    +0.000 OA
ENDBRANCH  16  24
ENDBRANCH  15  17
ENDBRANCH   1  15
TORSDOF 6
ENDMDL
MODEL 2
REMARK VINA RESULT:      -6.4      1.941      2.709
REMARK  Name = ZINC000065211166 MolPort-010-919-017
REMARK  6 active torsions:
REMARK  status: ('A' for Active; 'I' for Inactive)
REMARK    1  A    between atoms: C_3  and  C_4
REMARK    2  A    between atoms: C_5  and  S_27
REMARK    3  A    between atoms: C_6  and  C_7
REMARK    4  A    between atoms: C_6  and  S_27
REMARK    5  A    between atoms: C_8  and  C_9
REMARK    6  A    between atoms: C_8  and  N_23
REMARK                            x       y       z     vdW  Elec       q    Type
REMARK                         _______ _______ _______ _____ _____    ______ ____
ROOT
ATOM      1  C   UNL     1     -44.374 -14.652 -21.653  0.00  0.00    +0.000 C 
ENDROOT
BRANCH   1   2
ATOM      2  C   UNL     1     -44.662 -14.690 -23.112  0.00  0.00    +0.000 C 
ATOM      3  N   UNL     1     -45.264 -15.850 -23.688  0.00  0.00    +0.000 NA
ATOM      4  O   UNL     1     -44.364 -13.698 -23.830  0.00  0.00    +0.000 OA
BRANCH   3   5
ATOM      5  C   UNL     1     -45.587 -15.929 -25.103  0.00  0.00    +0.000 C 
BRANCH   5   6
ATOM      6  C   UNL     1     -44.730 -16.970 -25.758  0.00  0.00    +0.000 A 
ATOM      7  C   UNL     1     -43.609 -16.590 -26.525  0.00  0.00    +0.000 A 
ATOM      8  C   UNL     1     -43.222 -15.157 -26.687  0.00  0.00    +0.000 C 
ATOM      9  C   UNL     1     -42.830 -17.565 -27.154  0.00  0.00    +0.000 A 
ATOM     10  C   UNL     1     -43.158 -18.916 -27.032  0.00  0.00    +0.000 A 
ATOM     11  C   UNL     1     -42.325 -19.947 -27.704  0.00  0.00    +0.000 C 
ATOM     12  C   UNL     1     -44.270 -19.299 -26.281  0.00  0.00    +0.000 A 
ATOM     13  C   UNL     1     -45.059 -18.337 -25.645  0.00  0.00    +0.000 A 
ATOM     14  C   UNL     1     -46.240 -18.793 -24.856  0.00  0.00    +0.000 C 
ENDBRANCH   5   6
ENDBRANCH   3   5
ENDBRANCH   1   2
BRANCH   1  15
ATOM     15  S   UNL     1     -43.321 -16.060 -21.191  0.00  0.00    +0.000 S 
BRANCH  15  17
ATOM     16  C   UNL     1     -44.801 -18.367 -20.482  0.00  0.00    +0.000 A 
ATOM     17  C   UNL     1     -44.695 -16.953 -20.459  0.00  0.00    +0.000 A 
ATOM     18  C   UNL     1     -46.720 -16.786 -19.215  0.00  0.00    +0.000 A 
ATOM     19  C   UNL     1     -46.865 -18.170 -19.210  0.00  0.00    +0.000 A 
ATOM     20  C   UNL     1     -45.902 -18.954 -19.843  0.00  0.00    +0.000 A 
ATOM     21  N   UNL     1     -45.652 -16.217 -19.830  0.00  0.00    +0.000 NA
BRANCH  16  24
ATOM     22  C   UNL     1     -42.187 -20.812 -23.865  0.00  0.00    +0.000 C 
ATOM     23  C   UNL     1     -42.713 -20.299 -22.574  0.00  0.00    +0.000 A 
ATOM     24  C   UNL     1     -43.818 -19.271 -21.129  0.00  0.00    +0.000 A 
ATOM     25  N   UNL     1     -43.713 -19.406 -22.470  0.00  0.00    +0.000 NA
ATOM     26  N   UNL     1     -42.924 -20.039 -20.473  0.00  0.00    +0.000 NA
ATOM     27  O   UNL     1     -42.262 -20.660 -21.400  0.00  0.00    +0.000 OA
ENDBRANCH  16  24
ENDBRANCH  15  17
ENDBRANCH   1  15
TORSDOF 6
ENDMDL
MODEL 3
REMARK VINA RESULT:      -6.3      2.336      5.784
REMARK  Name = ZINC000065211166 MolPort-010-919-017
REMARK  6 active torsions:
REMARK  status: ('A' for Active; 'I' for Inactive)
REMARK    1  A    between atoms: C_3  and  C_4
REMARK    2  A    between atoms: C_5  and  S_27
REMARK    3  A    between atoms: C_6  and  C_7
REMARK    4  A    between atoms: C_6  and  S_27
REMARK    5  A    between atoms: C_8  and  C_9
REMARK    6  A    between atoms: C_8  and  N_23
REMARK                            x       y       z     vdW  Elec       q    Type
REMARK                         _______ _______ _______ _____ _____    ______ ____
ROOT
ATOM      1  C   UNL     1     -45.494 -14.611 -23.731  0.00  0.00    +0.000 C 
ENDROOT
BRANCH   1   2
ATOM      2  C   UNL     1     -45.988 -14.798 -22.340  0.00  0.00    +0.000 C 
ATOM      3  N   UNL     1     -45.571 -15.937 -21.586  0.00  0.00    +0.000 NA
ATOM      4  O   UNL     1     -46.776 -13.952 -21.841  0.00  0.00    +0.000 OA
BRANCH   3   5
ATOM      5  C   UNL     1     -46.006 -16.156 -20.216  0.00  0.00    +0.000 C 
BRANCH   5   6
ATOM      6  C   UNL     1     -45.089 -17.135 -19.546  0.00  0.00    +0.000 A 
ATOM      7  C   UNL     1     -43.857 -16.705 -19.012  0.00  0.00    +0.000 A 
ATOM      8  C   UNL     1     -43.438 -15.273 -19.065  0.00  0.00    +0.000 C 
ATOM      9  C   UNL     1     -42.995 -17.628 -18.412  0.00  0.00    +0.000 A 
ATOM     10  C   UNL     1     -43.346 -18.977 -18.344  0.00  0.00    +0.000 A 
ATOM     11  C   UNL     1     -42.424 -19.953 -17.705  0.00  0.00    +0.000 C 
ATOM     12  C   UNL     1     -44.560 -19.411 -18.878  0.00  0.00    +0.000 A 
ATOM     13  C   UNL     1     -45.432 -18.501 -19.480  0.00  0.00    +0.000 A 
ATOM     14  C   UNL     1     -46.718 -19.011 -20.040  0.00  0.00    +0.000 C 
ENDBRANCH   5   6
ENDBRANCH   3   5
ENDBRANCH   1   2
BRANCH   1  15
ATOM     15  S   UNL     1     -46.541 -15.538 -24.892  0.00  0.00    +0.000 S 
BRANCH  15  17
ATOM     16  C   UNL     1     -44.361 -16.692 -26.282  0.00  0.00    +0.000 A 
ATOM     17  C   UNL     1     -45.250 -15.596 -26.137  0.00  0.00    +0.000 A 
ATOM     18  C   UNL     1     -44.243 -14.489 -27.991  0.00  0.00    +0.000 A 
ATOM     19  C   UNL     1     -43.351 -15.542 -28.172  0.00  0.00    +0.000 A 
ATOM     20  C   UNL     1     -43.416 -16.639 -27.316  0.00  0.00    +0.000 A 
ATOM     21  N   UNL     1     -45.160 -14.541 -26.992  0.00  0.00    +0.000 NA
BRANCH  16  24
ATOM     22  C   UNL     1     -43.556 -19.791 -22.539  0.00  0.00    +0.000 C 
ATOM     23  C   UNL     1     -44.023 -19.201 -23.821  0.00  0.00    +0.000 A 
ATOM     24  C   UNL     1     -44.368 -17.897 -25.416  0.00  0.00    +0.000 A 
ATOM     25  N   UNL     1     -43.735 -17.951 -24.223  0.00  0.00    +0.000 NA
ATOM     26  N   UNL     1     -45.002 -19.052 -25.704  0.00  0.00    +0.000 NA
ATOM     27  O   UNL     1     -44.764 -19.832 -24.695  0.00  0.00    +0.000 OA
ENDBRANCH  16  24
ENDBRANCH  15  17
ENDBRANCH   1  15
TORSDOF 6
ENDMDL
