MODEL 1
REMARK VINA RESULT:      -6.4      0.000      0.000
REMARK  Name = ZINC000096181229
REMARK  4 active torsions:
REMARK  status: ('A' for Active; 'I' for Inactive)
REMARK    1  A    between atoms: C_3  and  C_4
REMARK    2  A    between atoms: C_4  and  N_20
REMARK    3  A    between atoms: C_5  and  C_6
REMARK    4  A    between atoms: C_10  and  C_11
REMARK                            x       y       z     vdW  Elec       q    Type
REMARK                         _______ _______ _______ _____ _____    ______ ____
ROOT
ATOM      1  C   UNL     1     -44.647 -17.928 -26.246  0.00  0.00    +0.000 C 
ATOM      2  C   UNL     1     -43.566 -18.847 -26.831  0.00  0.00    +0.000 C 
ATOM      3  C   UNL     1     -42.379 -17.971 -26.895  0.00  0.00    +0.000 C 
ATOM      4  C   UNL     1     -41.590 -15.686 -26.135  0.00  0.00    +0.000 C 
ATOM      5  C   UNL     1     -43.986 -16.575 -25.920  0.00  0.00    +0.000 C 
ATOM      6  N   UNL     1     -42.625 -16.669 -26.411  0.00  0.00    +0.000 N 
ATOM      7  O   UNL     1     -41.255 -18.347 -27.322  0.00  0.00    +0.000 OA
ENDROOT
BRANCH   5   8
ATOM      8  C   UNL     1     -44.722 -15.446 -26.575  0.00  0.00    +0.000 A 
ATOM      9  C   UNL     1     -44.495 -15.180 -27.929  0.00  0.00    +0.000 A 
ATOM     10  C   UNL     1     -45.169 -14.130 -28.561  0.00  0.00    +0.000 A 
ATOM     11  C   UNL     1     -46.073 -13.345 -27.841  0.00  0.00    +0.000 A 
ATOM     12  C   UNL     1     -46.789 -12.230 -28.514  0.00  0.00    +0.000 C 
ATOM     13  C   UNL     1     -46.304 -13.607 -26.487  0.00  0.00    +0.000 A 
ATOM     14  C   UNL     1     -45.631 -14.655 -25.855  0.00  0.00    +0.000 A 
ENDBRANCH   5   8
BRANCH   1  15
ATOM     15  C   UNL     1     -45.243 -18.531 -25.017  0.00  0.00    +0.000 C 
ATOM     16  N   UNL     1     -44.682 -18.248 -23.733  0.00  0.00    +0.000 NA
ATOM     17  O   UNL     1     -46.244 -19.288 -25.124  0.00  0.00    +0.000 OA
BRANCH  16  18
ATOM     18  C   UNL     1     -45.240 -18.799 -22.509  0.00  0.00    +0.000 C 
BRANCH  18  21
ATOM     19  C   UNL     1     -46.575 -19.046 -19.639  0.00  0.00    +0.000 C 
ATOM     20  C   UNL     1     -46.118 -17.795 -20.312  0.00  0.00    +0.000 A 
ATOM     21  C   UNL     1     -45.521 -17.697 -21.548  0.00  0.00    +0.000 A 
ATOM     22  C   UNL     1     -45.312 -16.346 -21.763  0.00  0.00    +0.000 A 
ATOM     23  C   UNL     1     -46.817 -16.192 -18.529  0.00  0.00    +0.000 C 
ATOM     24  N   UNL     1     -45.758 -15.676 -20.676  0.00  0.00    +0.000 NA
ATOM     25  N   UNL     1     -46.240 -16.555 -19.812  0.00  0.00    +0.000 N 
ENDBRANCH  18  21
ENDBRANCH  16  18
ENDBRANCH   1  15
TORSDOF 4
ENDMDL
MODEL 2
REMARK VINA RESULT:      -6.4     11.862     13.378
REMARK  Name = ZINC000096181229
REMARK  4 active torsions:
REMARK  status: ('A' for Active; 'I' for Inactive)
REMARK    1  A    between atoms: C_3  and  C_4
REMARK    2  A    between atoms: C_4  and  N_20
REMARK    3  A    between atoms: C_5  and  C_6
REMARK    4  A    between atoms: C_10  and  C_11
REMARK                            x       y       z     vdW  Elec       q    Type
REMARK                         _______ _______ _______ _____ _____    ______ ____
ROOT
ATOM      1  C   UNL     1     -46.652  -5.512 -30.028  0.00  0.00    +0.000 C 
ATOM      2  C   UNL     1     -47.546  -6.580 -30.673  0.00  0.00    +0.000 C 
ATOM      3  C   UNL     1     -46.685  -7.147 -31.729  0.00  0.00    +0.000 C 
ATOM      4  C   UNL     1     -44.285  -7.083 -32.542  0.00  0.00    +0.000 C 
ATOM      5  C   UNL     1     -45.271  -5.586 -30.706  0.00  0.00    +0.000 C 
ATOM      6  N   UNL     1     -45.403  -6.559 -31.773  0.00  0.00    +0.000 N 
ATOM      7  O   UNL     1     -47.046  -8.072 -32.505  0.00  0.00    +0.000 OA
ENDROOT
BRANCH   5   8
ATOM      8  C   UNL     1     -44.862  -4.247 -31.241  0.00  0.00    +0.000 A 
ATOM      9  C   UNL     1     -43.516  -4.014 -31.538  0.00  0.00    +0.000 A 
ATOM     10  C   UNL     1     -43.112  -2.771 -32.036  0.00  0.00    +0.000 A 
ATOM     11  C   UNL     1     -44.054  -1.759 -32.241  0.00  0.00    +0.000 A 
ATOM     12  C   UNL     1     -43.623  -0.439 -32.771  0.00  0.00    +0.000 C 
ATOM     13  C   UNL     1     -45.401  -1.987 -31.945  0.00  0.00    +0.000 A 
ATOM     14  C   UNL     1     -45.806  -3.228 -31.447  0.00  0.00    +0.000 A 
ENDBRANCH   5   8
BRANCH   1  15
ATOM     15  C   UNL     1     -46.529  -5.745 -28.559  0.00  0.00    +0.000 C 
ATOM     16  N   UNL     1     -47.134  -4.839 -27.634  0.00  0.00    +0.000 NA
ATOM     17  O   UNL     1     -45.890  -6.749 -28.145  0.00  0.00    +0.000 OA
BRANCH  16  18
ATOM     18  C   UNL     1     -47.054  -5.036 -26.196  0.00  0.00    +0.000 C 
BRANCH  18  21
ATOM     19  C   UNL     1     -47.006  -4.500 -23.067  0.00  0.00    +0.000 C 
ATOM     20  C   UNL     1     -47.168  -3.486 -24.149  0.00  0.00    +0.000 A 
ATOM     21  C   UNL     1     -47.168  -3.722 -25.505  0.00  0.00    +0.000 A 
ATOM     22  C   UNL     1     -47.386  -2.494 -26.105  0.00  0.00    +0.000 A 
ATOM     23  C   UNL     1     -47.432  -1.482 -22.681  0.00  0.00    +0.000 C 
ATOM     24  N   UNL     1     -47.492  -1.564 -25.128  0.00  0.00    +0.000 NA
ATOM     25  N   UNL     1     -47.361  -2.170 -23.959  0.00  0.00    +0.000 N 
ENDBRANCH  18  21
ENDBRANCH  16  18
ENDBRANCH   1  15
TORSDOF 4
ENDMDL
MODEL 3
REMARK VINA RESULT:      -6.3      1.418      2.054
REMARK  Name = ZINC000096181229
REMARK  4 active torsions:
REMARK  status: ('A' for Active; 'I' for Inactive)
REMARK    1  A    between atoms: C_3  and  C_4
REMARK    2  A    between atoms: C_4  and  N_20
REMARK    3  A    between atoms: C_5  and  C_6
REMARK    4  A    between atoms: C_10  and  C_11
REMARK                            x       y       z     vdW  Elec       q    Type
REMARK                         _______ _______ _______ _____ _____    ______ ____
ROOT
ATOM      1  C   UNL     1     -44.577 -17.777 -26.244  0.00  0.00    +0.000 C 
ATOM      2  C   UNL     1     -43.391 -18.686 -26.593  0.00  0.00    +0.000 C 
ATOM      3  C   UNL     1     -42.237 -17.767 -26.542  0.00  0.00    +0.000 C 
ATOM      4  C   UNL     1     -41.645 -15.405 -25.838  0.00  0.00    +0.000 C 
ATOM      5  C   UNL     1     -44.017 -16.379 -25.922  0.00  0.00    +0.000 C 
ATOM      6  N   UNL     1     -42.595 -16.447 -26.195  0.00  0.00    +0.000 N 
ATOM      7  O   UNL     1     -41.049 -18.123 -26.767  0.00  0.00    +0.000 OA
ENDROOT
BRANCH   5   8
ATOM      8  C   UNL     1     -44.680 -15.328 -26.759  0.00  0.00    +0.000 A 
ATOM      9  C   UNL     1     -45.684 -14.538 -26.192  0.00  0.00    +0.000 A 
ATOM     10  C   UNL     1     -46.318 -13.552 -26.955  0.00  0.00    +0.000 A 
ATOM     11  C   UNL     1     -45.948 -13.354 -28.289  0.00  0.00    +0.000 A 
ATOM     12  C   UNL     1     -46.623 -12.306 -29.099  0.00  0.00    +0.000 C 
ATOM     13  C   UNL     1     -44.946 -14.143 -28.861  0.00  0.00    +0.000 A 
ATOM     14  C   UNL     1     -44.312 -15.128 -28.099  0.00  0.00    +0.000 A 
ENDBRANCH   5   8
BRANCH   1  15
ATOM     15  C   UNL     1     -45.334 -18.322 -25.078  0.00  0.00    +0.000 C 
ATOM     16  N   UNL     1     -45.082 -17.824 -23.762  0.00  0.00    +0.000 NA
ATOM     17  O   UNL     1     -46.195 -19.221 -25.267  0.00  0.00    +0.000 OA
BRANCH  16  18
ATOM     18  C   UNL     1     -45.807 -18.313 -22.600  0.00  0.00    +0.000 C 
BRANCH  18  21
ATOM     19  C   UNL     1     -46.221 -18.653 -19.471  0.00  0.00    +0.000 C 
ATOM     20  C   UNL     1     -45.012 -19.026 -20.262  0.00  0.00    +0.000 A 
ATOM     21  C   UNL     1     -44.846 -18.895 -21.622  0.00  0.00    +0.000 A 
ATOM     22  C   UNL     1     -43.562 -19.333 -21.892  0.00  0.00    +0.000 A 
ATOM     23  C   UNL     1     -43.615 -19.838 -18.358  0.00  0.00    +0.000 C 
ATOM     24  N   UNL     1     -43.000 -19.726 -20.725  0.00  0.00    +0.000 NA
ATOM     25  N   UNL     1     -43.879 -19.537 -19.755  0.00  0.00    +0.000 N 
ENDBRANCH  18  21
ENDBRANCH  16  18
ENDBRANCH   1  15
TORSDOF 4
ENDMDL
