MODEL 1
REMARK VINA RESULT:      -6.3      0.000      0.000
REMARK  Name = ZINC000005348225 PubChem-7643528
REMARK  7 active torsions:
REMARK  status: ('A' for Active; 'I' for Inactive)
REMARK    1  A    between atoms: C_5  and  C_8
REMARK    2  A    between atoms: C_8  and  C_9
REMARK    3  A    between atoms: C_8  and  C_15
REMARK    4  A    between atoms: C_9  and  C_10
REMARK    5  A    between atoms: C_11  and  C_12
REMARK    6  A    between atoms: C_11  and  N_24
REMARK    7  A    between atoms: C_12  and  N_25
REMARK                            x       y       z     vdW  Elec       q    Type
REMARK                         _______ _______ _______ _____ _____    ______ ____
ROOT
ATOM      1  C   UNL     1     -44.617 -18.263 -22.762  0.00  0.00    +0.000 C 
ENDROOT
BRANCH   1   2
ATOM      2  C   UNL     1     -43.801 -19.504 -22.366  0.00  0.00    +0.000 C 
ATOM      3  C   UNL     1     -43.484 -20.389 -23.580  0.00  0.00    +0.000 C 
ATOM      4  C   UNL     1     -42.225 -21.231 -23.348  0.00  0.00    +0.000 C 
ATOM      5  C   UNL     1     -41.698 -20.373 -21.261  0.00  0.00    +0.000 C 
ATOM      6  C   UNL     1     -42.500 -19.117 -21.657  0.00  0.00    +0.000 C 
ATOM      7  C   UNL     1     -41.938 -20.629 -19.787  0.00  0.00    +0.000 C 
ATOM      8  C   UNL     1     -40.215 -20.102 -21.451  0.00  0.00    +0.000 C 
ATOM      9  O   UNL     1     -42.082 -21.540 -21.979  0.00  0.00    +0.000 OA
ENDBRANCH   1   2
BRANCH   1  14
ATOM     10  C   UNL     1     -47.299 -15.952 -18.183  0.00  0.00    +0.000 C 
ATOM     11  C   UNL     1     -46.607 -16.538 -19.360  0.00  0.00    +0.000 A 
ATOM     12  C   UNL     1     -45.977 -15.703 -20.287  0.00  0.00    +0.000 A 
ATOM     13  C   UNL     1     -45.327 -16.254 -21.395  0.00  0.00    +0.000 A 
ATOM     14  C   UNL     1     -45.307 -17.645 -21.582  0.00  0.00    +0.000 A 
ATOM     15  C   UNL     1     -45.939 -18.477 -20.649  0.00  0.00    +0.000 A 
ATOM     16  C   UNL     1     -46.588 -17.924 -19.541  0.00  0.00    +0.000 A 
ENDBRANCH   1  14
BRANCH   1  17
ATOM     17  C   UNL     1     -45.649 -18.580 -23.842  0.00  0.00    +0.000 C 
BRANCH  17  18
ATOM     18  C   UNL     1     -45.462 -17.699 -25.030  0.00  0.00    +0.000 C 
ATOM     19  O   UNL     1     -45.132 -18.200 -26.140  0.00  0.00    +0.000 OA
ATOM     20  N   UNL     1     -45.646 -16.291 -24.896  0.00  0.00    +0.000 NA
BRANCH  20  21
ATOM     21  C   UNL     1     -45.484 -15.382 -26.019  0.00  0.00    +0.000 C 
BRANCH  21  22
ATOM     22  C   UNL     1     -45.970 -13.995 -25.636  0.00  0.00    +0.000 C 
BRANCH  22  25
ATOM     23  C   UNL     1     -46.523 -11.934 -26.592  0.00  0.00    +0.000 C 
ATOM     24  C   UNL     1     -45.888 -13.715 -27.948  0.00  0.00    +0.000 C 
ATOM     25  N   UNL     1     -46.650 -13.371 -26.761  0.00  0.00    +0.000 NA
ENDBRANCH  22  25
ENDBRANCH  21  22
ENDBRANCH  20  21
ENDBRANCH  17  18
ENDBRANCH   1  17
TORSDOF 7
ENDMDL
MODEL 2
REMARK VINA RESULT:      -6.0     11.022     14.066
REMARK  Name = ZINC000005348225 PubChem-7643528
REMARK  7 active torsions:
REMARK  status: ('A' for Active; 'I' for Inactive)
REMARK    1  A    between atoms: C_5  and  C_8
REMARK    2  A    between atoms: C_8  and  C_9
REMARK    3  A    between atoms: C_8  and  C_15
REMARK    4  A    between atoms: C_9  and  C_10
REMARK    5  A    between atoms: C_11  and  C_12
REMARK    6  A    between atoms: C_11  and  N_24
REMARK    7  A    between atoms: C_12  and  N_25
REMARK                            x       y       z     vdW  Elec       q    Type
REMARK                         _______ _______ _______ _____ _____    ______ ____
ROOT
ATOM      1  C   UNL     1     -46.427  -5.614 -28.689  0.00  0.00    +0.000 C 
ENDROOT
BRANCH   1   2
ATOM      2  C   UNL     1     -46.245  -7.139 -28.634  0.00  0.00    +0.000 C 
ATOM      3  C   UNL     1     -47.432  -7.879 -29.265  0.00  0.00    +0.000 C 
ATOM      4  C   UNL     1     -47.026  -9.266 -29.771  0.00  0.00    +0.000 C 
ATOM      5  C   UNL     1     -44.775  -9.104 -29.246  0.00  0.00    +0.000 C 
ATOM      6  C   UNL     1     -44.945  -7.574 -29.316  0.00  0.00    +0.000 C 
ATOM      7  C   UNL     1     -43.801  -9.411 -28.126  0.00  0.00    +0.000 C 
ATOM      8  C   UNL     1     -44.162  -9.602 -30.544  0.00  0.00    +0.000 C 
ATOM      9  O   UNL     1     -45.988  -9.797 -28.976  0.00  0.00    +0.000 OA
ENDBRANCH   1   2
BRANCH   1  14
ATOM     10  C   UNL     1     -47.571  -3.308 -23.505  0.00  0.00    +0.000 C 
ATOM     11  C   UNL     1     -47.276  -3.908 -24.832  0.00  0.00    +0.000 A 
ATOM     12  C   UNL     1     -46.830  -5.229 -24.918  0.00  0.00    +0.000 A 
ATOM     13  C   UNL     1     -46.552  -5.793 -26.167  0.00  0.00    +0.000 A 
ATOM     14  C   UNL     1     -46.717  -5.034 -27.336  0.00  0.00    +0.000 A 
ATOM     15  C   UNL     1     -47.166  -3.711 -27.243  0.00  0.00    +0.000 A 
ATOM     16  C   UNL     1     -47.445  -3.149 -25.994  0.00  0.00    +0.000 A 
ENDBRANCH   1  14
BRANCH   1  17
ATOM     17  C   UNL     1     -47.532  -5.206 -29.661  0.00  0.00    +0.000 C 
BRANCH  17  18
ATOM     18  C   UNL     1     -46.958  -4.571 -30.881  0.00  0.00    +0.000 C 
ATOM     19  O   UNL     1     -46.870  -5.230 -31.953  0.00  0.00    +0.000 OA
ATOM     20  N   UNL     1     -46.500  -3.221 -30.819  0.00  0.00    +0.000 NA
BRANCH  20  21
ATOM     21  C   UNL     1     -45.937  -2.545 -31.977  0.00  0.00    +0.000 C 
BRANCH  21  22
ATOM     22  C   UNL     1     -44.966  -1.467 -31.526  0.00  0.00    +0.000 C 
BRANCH  22  25
ATOM     23  C   UNL     1     -42.834  -0.933 -32.319  0.00  0.00    +0.000 C 
ATOM     24  C   UNL     1     -44.404  -1.887 -33.747  0.00  0.00    +0.000 C 
ATOM     25  N   UNL     1     -44.243  -0.930 -32.668  0.00  0.00    +0.000 NA
ENDBRANCH  22  25
ENDBRANCH  21  22
ENDBRANCH  20  21
ENDBRANCH  17  18
ENDBRANCH   1  17
TORSDOF 7
ENDMDL
MODEL 3
REMARK VINA RESULT:      -5.9      3.927      8.027
REMARK  Name = ZINC000005348225 PubChem-7643528
REMARK  7 active torsions:
REMARK  status: ('A' for Active; 'I' for Inactive)
REMARK    1  A    between atoms: C_5  and  C_8
REMARK    2  A    between atoms: C_8  and  C_9
REMARK    3  A    between atoms: C_8  and  C_15
REMARK    4  A    between atoms: C_9  and  C_10
REMARK    5  A    between atoms: C_11  and  C_12
REMARK    6  A    between atoms: C_11  and  N_24
REMARK    7  A    between atoms: C_12  and  N_25
REMARK                            x       y       z     vdW  Elec       q    Type
REMARK                         _______ _______ _______ _____ _____    ______ ____
ROOT
ATOM      1  C   UNL     1     -45.059 -18.171 -20.398  0.00  0.00    +0.000 C 
ENDROOT
BRANCH   1   2
ATOM      2  C   UNL     1     -45.931 -16.912 -20.268  0.00  0.00    +0.000 C 
ATOM      3  C   UNL     1     -46.750 -16.916 -18.970  0.00  0.00    +0.000 C 
ATOM      4  C   UNL     1     -47.112 -15.495 -18.529  0.00  0.00    +0.000 C 
ATOM      5  C   UNL     1     -45.979 -14.384 -20.218  0.00  0.00    +0.000 C 
ATOM      6  C   UNL     1     -45.088 -15.636 -20.342  0.00  0.00    +0.000 C 
ATOM      7  C   UNL     1     -46.191 -13.827 -21.611  0.00  0.00    +0.000 C 
ATOM      8  C   UNL     1     -45.251 -13.329 -19.401  0.00  0.00    +0.000 C 
ATOM      9  O   UNL     1     -47.256 -14.651 -19.651  0.00  0.00    +0.000 OA
ENDBRANCH   1   2
BRANCH   1  14
ATOM     10  C   UNL     1     -44.462 -19.923 -25.881  0.00  0.00    +0.000 C 
ATOM     11  C   UNL     1     -44.623 -19.470 -24.475  0.00  0.00    +0.000 A 
ATOM     12  C   UNL     1     -45.722 -18.686 -24.115  0.00  0.00    +0.000 A 
ATOM     13  C   UNL     1     -45.873 -18.259 -22.793  0.00  0.00    +0.000 A 
ATOM     14  C   UNL     1     -44.921 -18.615 -21.824  0.00  0.00    +0.000 A 
ATOM     15  C   UNL     1     -43.823 -19.402 -22.191  0.00  0.00    +0.000 A 
ATOM     16  C   UNL     1     -43.674 -19.829 -23.513  0.00  0.00    +0.000 A 
ENDBRANCH   1  14
BRANCH   1  17
ATOM     17  C   UNL     1     -45.600 -19.328 -19.559  0.00  0.00    +0.000 C 
BRANCH  17  18
ATOM     18  C   UNL     1     -44.537 -19.881 -18.672  0.00  0.00    +0.000 C 
ATOM     19  O   UNL     1     -44.615 -21.072 -18.263  0.00  0.00    +0.000 OA
ATOM     20  N   UNL     1     -43.445 -19.050 -18.282  0.00  0.00    +0.000 NA
BRANCH  20  21
ATOM     21  C   UNL     1     -42.376 -19.535 -17.424  0.00  0.00    +0.000 C 
BRANCH  21  22
ATOM     22  C   UNL     1     -41.285 -20.172 -18.269  0.00  0.00    +0.000 C 
BRANCH  22  25
ATOM     23  C   UNL     1     -41.402 -22.285 -19.262  0.00  0.00    +0.000 C 
ATOM     24  C   UNL     1     -39.840 -21.869 -17.588  0.00  0.00    +0.000 C 
ATOM     25  N   UNL     1     -41.207 -21.599 -17.997  0.00  0.00    +0.000 NA
ENDBRANCH  22  25
ENDBRANCH  21  22
ENDBRANCH  20  21
ENDBRANCH  17  18
ENDBRANCH   1  17
TORSDOF 7
ENDMDL
