MODEL 1
REMARK VINA RESULT:      -6.6      0.000      0.000
REMARK  Name = ZINC000006760457 MCULE-2101817835 MolPort-002-670-898
REMARK  7 active torsions:
REMARK  status: ('A' for Active; 'I' for Inactive)
REMARK    1  A    between atoms: C_1  and  C_2
REMARK    2  A    between atoms: C_2  and  C_3
REMARK    3  A    between atoms: CA_4  and  C_5
REMARK    4  A    between atoms: CA_4  and  CB_6
REMARK    5  A    between atoms: CA_4  and  N_30
REMARK    6  A    between atoms: CB_6  and  CG_7
REMARK    7  A    between atoms: C_17  and  C_18
REMARK                            x       y       z     vdW  Elec       q    Type
REMARK                         _______ _______ _______ _____ _____    ______ ____
ROOT
ATOM      1  C   UNK A   0     -46.973  -5.637 -29.160  0.00  0.00    +0.000 A 
ATOM      2  C   UNK A   0     -47.365  -4.296 -29.324  0.00  0.00    +0.000 A 
ATOM      3  C   UNK A   0     -47.301  -3.910 -27.025  0.00  0.00    +0.000 A 
ATOM      4  C   UNK A   0     -46.902  -5.255 -26.769  0.00  0.00    +0.000 A 
ATOM      5  C   UNK A   0     -46.682  -5.684 -25.443  0.00  0.00    +0.000 A 
ATOM      6  C   UNK A   0     -46.868  -4.756 -24.421  0.00  0.00    +0.000 A 
ATOM      7  C   UNK A   0     -47.250  -3.469 -24.670  0.00  0.00    +0.000 A 
ATOM      8  C   UNK A   0     -47.055  -3.603 -22.546  0.00  0.00    +0.000 A 
ATOM      9  C   UNK A   0     -46.735  -4.868 -23.051  0.00  0.00    +0.000 A 
ATOM     10  C   UNK A   0     -47.478  -3.005 -25.962  0.00  0.00    +0.000 A 
ATOM     11  C   UNK A   0     -46.738  -6.122 -27.861  0.00  0.00    +0.000 A 
ATOM     12  C   UNK A   0     -46.313  -7.544 -27.647  0.00  0.00    +0.000 C 
ATOM     13  O   UNK A   0     -47.584  -3.833 -30.475  0.00  0.00    +0.000 OA
ATOM     14  O   UNK A   0     -47.510  -3.499 -28.270  0.00  0.00    +0.000 OA
ATOM     15  O   UNK A   0     -47.357  -2.797 -23.551  0.00  0.00    +0.000 OA
ENDROOT
BRANCH   9  16
ATOM     16  C   UNK A   0     -46.331  -6.093 -22.266  0.00  0.00    +0.000 C 
ATOM     17  C   UNK A   0     -46.151  -5.731 -20.804  0.00  0.00    +0.000 C 
ATOM     18  C   UNK A   0     -45.024  -6.642 -22.804  0.00  0.00    +0.000 C 
ATOM     19  C   UNK A   0     -47.383  -7.186 -22.360  0.00  0.00    +0.000 C 
ENDBRANCH   9  16
BRANCH   1  20
ATOM     20  C   UNK A   0     -46.839  -6.536 -30.356  0.00  0.00    +0.000 C 
BRANCH  20  21
ATOM     21  C   UNK A   0     -45.738  -6.066 -31.243  0.00  0.00    +0.000 C 
ATOM     22  O   UNK A   0     -45.868  -6.146 -32.493  0.00  0.00    +0.000 OA
ATOM     23  N   LEU A   1     -44.532  -5.561 -30.666  0.00  0.00    +0.000 NA
BRANCH  23  24
ATOM     24  CA  LEU A   1     -43.411  -5.091 -31.472  0.00  0.00    +0.000 C 
BRANCH  24  25
ATOM     25  C   LEU A   1     -42.096  -5.383 -30.765  0.00  0.00    +0.000 C 
ATOM     26  O   LEU A   1     -42.336  -5.716 -29.432  0.00  0.00    +0.000 OA
ENDBRANCH  24  25
BRANCH  24  27
ATOM     27  CB  LEU A   1     -43.543  -3.600 -31.795  0.00  0.00    +0.000 C 
BRANCH  27  28
ATOM     28  CG  LEU A   1     -43.977  -3.331 -33.232  0.00  0.00    +0.000 C 
ATOM     29  CD1 LEU A   1     -45.200  -2.439 -33.224  0.00  0.00    +0.000 C 
ATOM     30  CD2 LEU A   1     -42.866  -2.639 -33.997  0.00  0.00    +0.000 C 
ENDBRANCH  27  28
ENDBRANCH  24  27
ENDBRANCH  23  24
ENDBRANCH  20  21
ENDBRANCH   1  20
TORSDOF 7
ENDMDL
MODEL 2
REMARK VINA RESULT:      -6.4      3.733      8.399
REMARK  Name = ZINC000006760457 MCULE-2101817835 MolPort-002-670-898
REMARK  7 active torsions:
REMARK  status: ('A' for Active; 'I' for Inactive)
REMARK    1  A    between atoms: C_1  and  C_2
REMARK    2  A    between atoms: C_2  and  C_3
REMARK    3  A    between atoms: CA_4  and  C_5
REMARK    4  A    between atoms: CA_4  and  CB_6
REMARK    5  A    between atoms: CA_4  and  N_30
REMARK    6  A    between atoms: CB_6  and  CG_7
REMARK    7  A    between atoms: C_17  and  C_18
REMARK                            x       y       z     vdW  Elec       q    Type
REMARK                         _______ _______ _______ _____ _____    ______ ____
ROOT
ATOM      1  C   UNK A   0     -45.445  -4.318 -33.689  0.00  0.00    +0.000 A 
ATOM      2  C   UNK A   0     -45.943  -3.014 -33.517  0.00  0.00    +0.000 A 
ATOM      3  C   UNK A   0     -43.801  -2.147 -33.206  0.00  0.00    +0.000 A 
ATOM      4  C   UNK A   0     -43.212  -3.436 -33.367  0.00  0.00    +0.000 A 
ATOM      5  C   UNK A   0     -41.812  -3.587 -33.279  0.00  0.00    +0.000 A 
ATOM      6  C   UNK A   0     -41.050  -2.446 -33.032  0.00  0.00    +0.000 A 
ATOM      7  C   UNK A   0     -41.618  -1.214 -32.879  0.00  0.00    +0.000 A 
ATOM      8  C   UNK A   0     -39.515  -0.903 -32.658  0.00  0.00    +0.000 A 
ATOM      9  C   UNK A   0     -39.688  -2.271 -32.894  0.00  0.00    +0.000 A 
ATOM     10  C   UNK A   0     -42.994  -1.021 -32.959  0.00  0.00    +0.000 A 
ATOM     11  C   UNK A   0     -44.056  -4.530 -33.612  0.00  0.00    +0.000 A 
ATOM     12  C   UNK A   0     -43.487  -5.906 -33.796  0.00  0.00    +0.000 C 
ATOM     13  O   UNK A   0     -47.182  -2.793 -33.579  0.00  0.00    +0.000 OA
ATOM     14  O   UNK A   0     -45.117  -1.998 -33.288  0.00  0.00    +0.000 OA
ATOM     15  O   UNK A   0     -40.698  -0.309 -32.658  0.00  0.00    +0.000 OA
ENDROOT
BRANCH   9  16
ATOM     16  C   UNK A   0     -38.614  -3.329 -32.977  0.00  0.00    +0.000 C 
ATOM     17  C   UNK A   0     -39.077  -4.589 -32.270  0.00  0.00    +0.000 C 
ATOM     18  C   UNK A   0     -37.345  -2.829 -32.314  0.00  0.00    +0.000 C 
ATOM     19  C   UNK A   0     -38.292  -3.683 -34.420  0.00  0.00    +0.000 C 
ENDBRANCH   9  16
BRANCH   1  20
ATOM     20  C   UNK A   0     -46.389  -5.464 -33.920  0.00  0.00    +0.000 C 
BRANCH  20  21
ATOM     21  C   UNK A   0     -46.679  -6.169 -32.640  0.00  0.00    +0.000 C 
ATOM     22  O   UNK A   0     -47.036  -7.376 -32.660  0.00  0.00    +0.000 OA
ATOM     23  N   LEU A   1     -46.584  -5.457 -31.404  0.00  0.00    +0.000 NA
BRANCH  23  24
ATOM     24  CA  LEU A   1     -46.860  -6.079 -30.114  0.00  0.00    +0.000 C 
BRANCH  24  25
ATOM     25  C   LEU A   1     -47.326  -5.033 -29.114  0.00  0.00    +0.000 C 
ATOM     26  O   LEU A   1     -47.559  -3.822 -29.766  0.00  0.00    +0.000 OA
ENDBRANCH  24  25
BRANCH  24  27
ATOM     27  CB  LEU A   1     -45.638  -6.838 -29.588  0.00  0.00    +0.000 C 
BRANCH  27  28
ATOM     28  CG  LEU A   1     -44.552  -5.922 -29.035  0.00  0.00    +0.000 C 
ATOM     29  CD1 LEU A   1     -44.018  -6.506 -27.745  0.00  0.00    +0.000 C 
ATOM     30  CD2 LEU A   1     -43.413  -5.797 -30.028  0.00  0.00    +0.000 C 
ENDBRANCH  27  28
ENDBRANCH  24  27
ENDBRANCH  23  24
ENDBRANCH  20  21
ENDBRANCH   1  20
TORSDOF 7
ENDMDL
MODEL 3
REMARK VINA RESULT:      -6.3      1.609      2.112
REMARK  Name = ZINC000006760457 MCULE-2101817835 MolPort-002-670-898
REMARK  7 active torsions:
REMARK  status: ('A' for Active; 'I' for Inactive)
REMARK    1  A    between atoms: C_1  and  C_2
REMARK    2  A    between atoms: C_2  and  C_3
REMARK    3  A    between atoms: CA_4  and  C_5
REMARK    4  A    between atoms: CA_4  and  CB_6
REMARK    5  A    between atoms: CA_4  and  N_30
REMARK    6  A    between atoms: CB_6  and  CG_7
REMARK    7  A    between atoms: C_17  and  C_18
REMARK                            x       y       z     vdW  Elec       q    Type
REMARK                         _______ _______ _______ _____ _____    ______ ____
ROOT
ATOM      1  C   UNK A   0     -46.607  -5.789 -30.611  0.00  0.00    +0.000 A 
ATOM      2  C   UNK A   0     -47.366  -4.606 -30.559  0.00  0.00    +0.000 A 
ATOM      3  C   UNK A   0     -47.317  -4.578 -28.228  0.00  0.00    +0.000 A 
ATOM      4  C   UNK A   0     -46.547  -5.777 -28.189  0.00  0.00    +0.000 A 
ATOM      5  C   UNK A   0     -46.160  -6.326 -26.948  0.00  0.00    +0.000 A 
ATOM      6  C   UNK A   0     -46.557  -5.659 -25.791  0.00  0.00    +0.000 A 
ATOM      7  C   UNK A   0     -47.294  -4.511 -25.833  0.00  0.00    +0.000 A 
ATOM      8  C   UNK A   0     -46.981  -4.911 -23.757  0.00  0.00    +0.000 A 
ATOM      9  C   UNK A   0     -46.341  -5.939 -24.457  0.00  0.00    +0.000 A 
ATOM     10  C   UNK A   0     -47.696  -3.936 -27.035  0.00  0.00    +0.000 A 
ATOM     11  C   UNK A   0     -46.192  -6.383 -29.405  0.00  0.00    +0.000 A 
ATOM     12  C   UNK A   0     -45.376  -7.642 -29.420  0.00  0.00    +0.000 C 
ATOM     13  O   UNK A   0     -47.753  -4.052 -31.623  0.00  0.00    +0.000 OA
ATOM     14  O   UNK A   0     -47.684  -4.056 -29.392  0.00  0.00    +0.000 OA
ATOM     15  O   UNK A   0     -47.539  -4.078 -24.621  0.00  0.00    +0.000 OA
ENDROOT
BRANCH   9  16
ATOM     16  C   UNK A   0     -45.578  -7.105 -23.877  0.00  0.00    +0.000 C 
ATOM     17  C   UNK A   0     -44.178  -7.146 -24.459  0.00  0.00    +0.000 C 
ATOM     18  C   UNK A   0     -46.289  -8.403 -24.209  0.00  0.00    +0.000 C 
ATOM     19  C   UNK A   0     -45.462  -6.998 -22.365  0.00  0.00    +0.000 C 
ENDBRANCH   9  16
BRANCH   1  20
ATOM     20  C   UNK A   0     -46.276  -6.418 -31.935  0.00  0.00    +0.000 C 
BRANCH  20  21
ATOM     21  C   UNK A   0     -45.372  -5.533 -32.722  0.00  0.00    +0.000 C 
ATOM     22  O   UNK A   0     -45.627  -5.299 -33.933  0.00  0.00    +0.000 OA
ATOM     23  N   LEU A   1     -44.205  -4.986 -32.105  0.00  0.00    +0.000 NA
BRANCH  23  24
ATOM     24  CA  LEU A   1     -43.271  -4.119 -32.815  0.00  0.00    +0.000 C 
BRANCH  24  25
ATOM     25  C   LEU A   1     -41.991  -4.875 -33.136  0.00  0.00    +0.000 C 
ATOM     26  O   LEU A   1     -42.102  -5.491 -34.382  0.00  0.00    +0.000 OA
ENDBRANCH  24  25
BRANCH  24  27
ATOM     27  CB  LEU A   1     -42.974  -2.846 -32.016  0.00  0.00    +0.000 C 
BRANCH  27  28
ATOM     28  CG  LEU A   1     -43.936  -1.704 -32.324  0.00  0.00    +0.000 C 
ATOM     29  CD1 LEU A   1     -44.512  -1.898 -33.710  0.00  0.00    +0.000 C 
ATOM     30  CD2 LEU A   1     -45.069  -1.684 -31.317  0.00  0.00    +0.000 C 
ENDBRANCH  27  28
ENDBRANCH  24  27
ENDBRANCH  23  24
ENDBRANCH  20  21
ENDBRANCH   1  20
TORSDOF 7
ENDMDL
