MODEL 1
REMARK VINA RESULT:      -6.5      0.000      0.000
REMARK  Name = ZINC000096181682 ZINC96181682 PubChem-97457512
REMARK  3 active torsions:
REMARK  status: ('A' for Active; 'I' for Inactive)
REMARK    1  A    between atoms: C_5  and  N_20
REMARK    2  A    between atoms: C_7  and  C_8
REMARK    3  A    between atoms: C_9  and  C_13
REMARK                            x       y       z     vdW  Elec       q    Type
REMARK                         _______ _______ _______ _____ _____    ______ ____
ROOT
ATOM      1  C   UNL     1     -45.847  -3.416 -31.206  0.00  0.00    +0.000 C 
ATOM      2  C   UNL     1     -44.585  -3.942 -31.917  0.00  0.00    +0.000 C 
ATOM      3  C   UNL     1     -46.255  -4.860 -33.562  0.00  0.00    +0.000 C 
ATOM      4  C   UNL     1     -47.351  -4.213 -32.779  0.00  0.00    +0.000 C 
ATOM      5  C   UNL     1     -43.863  -5.595 -33.678  0.00  0.00    +0.000 C 
ATOM      6  N   UNL     1     -44.914  -4.797 -33.063  0.00  0.00    +0.000 N 
ATOM      7  O   UNL     1     -46.527  -5.502 -34.610  0.00  0.00    +0.000 OA
ATOM      8  O   UNL     1     -46.885  -3.063 -32.105  0.00  0.00    +0.000 OA
ENDROOT
BRANCH   2   9
ATOM      9  C   UNL     1     -43.707  -2.803 -32.340  0.00  0.00    +0.000 A 
ATOM     10  C   UNL     1     -42.321  -2.916 -32.184  0.00  0.00    +0.000 A 
ATOM     11  C   UNL     1     -41.482  -1.870 -32.577  0.00  0.00    +0.000 A 
ATOM     12  C   UNL     1     -42.025  -0.707 -33.130  0.00  0.00    +0.000 A 
ATOM     13  C   UNL     1     -43.409  -0.590 -33.291  0.00  0.00    +0.000 A 
ATOM     14  C   UNL     1     -44.249  -1.635 -32.897  0.00  0.00    +0.000 A 
ATOM     15  F   UNL     1     -41.211   0.307 -33.510  0.00  0.00    +0.000 F 
ENDBRANCH   2   9
BRANCH   1  16
ATOM     16  C   UNL     1     -46.308  -4.286 -30.072  0.00  0.00    +0.000 C 
ATOM     17  N   UNL     1     -45.618  -5.508 -29.776  0.00  0.00    +0.000 NA
ATOM     18  O   UNL     1     -47.322  -3.939 -29.410  0.00  0.00    +0.000 OA
BRANCH  17  23
ATOM     19  C   UNL     1     -45.449  -6.790 -25.013  0.00  0.00    +0.000 C 
ATOM     20  C   UNL     1     -45.878  -7.061 -26.410  0.00  0.00    +0.000 A 
ATOM     21  C   UNL     1     -46.609  -8.212 -26.706  0.00  0.00    +0.000 A 
ATOM     22  C   UNL     1     -47.003  -8.448 -28.024  0.00  0.00    +0.000 A 
ATOM     23  C   UNL     1     -45.959  -6.432 -28.737  0.00  0.00    +0.000 A 
ATOM     24  C   UNL     1     -45.549  -6.164 -27.428  0.00  0.00    +0.000 A 
ATOM     25  N   UNL     1     -46.672  -7.563 -29.003  0.00  0.00    +0.000 NA
ENDBRANCH  17  23
ENDBRANCH   1  16
TORSDOF 3
ENDMDL
MODEL 2
REMARK VINA RESULT:      -6.2      9.206     13.565
REMARK  Name = ZINC000096181682 ZINC96181682 PubChem-97457512
REMARK  3 active torsions:
REMARK  status: ('A' for Active; 'I' for Inactive)
REMARK    1  A    between atoms: C_5  and  N_20
REMARK    2  A    between atoms: C_7  and  C_8
REMARK    3  A    between atoms: C_9  and  C_13
REMARK                            x       y       z     vdW  Elec       q    Type
REMARK                         _______ _______ _______ _____ _____    ______ ____
ROOT
ATOM      1  C   UNL     1     -45.833 -14.682 -25.014  0.00  0.00    +0.000 C 
ATOM      2  C   UNL     1     -44.498 -15.448 -24.928  0.00  0.00    +0.000 C 
ATOM      3  C   UNL     1     -44.397 -14.422 -22.632  0.00  0.00    +0.000 C 
ATOM      4  C   UNL     1     -45.741 -13.814 -22.866  0.00  0.00    +0.000 C 
ATOM      5  C   UNL     1     -42.372 -15.552 -23.580  0.00  0.00    +0.000 C 
ATOM      6  N   UNL     1     -43.762 -15.137 -23.698  0.00  0.00    +0.000 N 
ATOM      7  O   UNL     1     -43.812 -14.248 -21.531  0.00  0.00    +0.000 OA
ATOM      8  O   UNL     1     -46.502 -14.592 -23.766  0.00  0.00    +0.000 OA
ENDROOT
BRANCH   2   9
ATOM      9  C   UNL     1     -44.731 -16.924 -25.051  0.00  0.00    +0.000 A 
ATOM     10  C   UNL     1     -44.184 -17.613 -26.139  0.00  0.00    +0.000 A 
ATOM     11  C   UNL     1     -44.382 -18.990 -26.269  0.00  0.00    +0.000 A 
ATOM     12  C   UNL     1     -45.125 -19.685 -25.311  0.00  0.00    +0.000 A 
ATOM     13  C   UNL     1     -45.671 -19.002 -24.220  0.00  0.00    +0.000 A 
ATOM     14  C   UNL     1     -45.474 -17.624 -24.089  0.00  0.00    +0.000 A 
ATOM     15  F   UNL     1     -45.316 -21.020 -25.439  0.00  0.00    +0.000 F 
ENDBRANCH   2   9
BRANCH   1  16
ATOM     16  C   UNL     1     -45.731 -13.368 -25.734  0.00  0.00    +0.000 C 
ATOM     17  N   UNL     1     -46.907 -12.751 -26.276  0.00  0.00    +0.000 NA
ATOM     18  O   UNL     1     -44.598 -12.839 -25.879  0.00  0.00    +0.000 OA
BRANCH  17  23
ATOM     19  C   UNL     1     -46.386 -10.283 -30.518  0.00  0.00    +0.000 C 
ATOM     20  C   UNL     1     -46.695 -10.304 -29.064  0.00  0.00    +0.000 A 
ATOM     21  C   UNL     1     -47.023  -9.120 -28.402  0.00  0.00    +0.000 A 
ATOM     22  C   UNL     1     -47.310  -9.161 -27.037  0.00  0.00    +0.000 A 
ATOM     23  C   UNL     1     -46.948 -11.513 -26.993  0.00  0.00    +0.000 A 
ATOM     24  C   UNL     1     -46.656 -11.508 -28.359  0.00  0.00    +0.000 A 
ATOM     25  N   UNL     1     -47.266 -10.344 -26.366  0.00  0.00    +0.000 NA
ENDBRANCH  17  23
ENDBRANCH   1  16
TORSDOF 3
ENDMDL
MODEL 3
REMARK VINA RESULT:      -6.1     10.761     13.556
REMARK  Name = ZINC000096181682 ZINC96181682 PubChem-97457512
REMARK  3 active torsions:
REMARK  status: ('A' for Active; 'I' for Inactive)
REMARK    1  A    between atoms: C_5  and  N_20
REMARK    2  A    between atoms: C_7  and  C_8
REMARK    3  A    between atoms: C_9  and  C_13
REMARK                            x       y       z     vdW  Elec       q    Type
REMARK                         _______ _______ _______ _____ _____    ______ ____
ROOT
ATOM      1  C   UNL     1     -45.034 -16.764 -25.765  0.00  0.00    +0.000 C 
ATOM      2  C   UNL     1     -44.671 -15.273 -25.622  0.00  0.00    +0.000 C 
ATOM      3  C   UNL     1     -42.311 -16.141 -25.726  0.00  0.00    +0.000 C 
ATOM      4  C   UNL     1     -42.849 -17.520 -25.931  0.00  0.00    +0.000 C 
ATOM      5  C   UNL     1     -42.734 -13.763 -25.060  0.00  0.00    +0.000 C 
ATOM      6  N   UNL     1     -43.227 -15.068 -25.476  0.00  0.00    +0.000 N 
ATOM      7  O   UNL     1     -41.067 -15.948 -25.713  0.00  0.00    +0.000 OA
ATOM      8  O   UNL     1     -44.110 -17.486 -26.564  0.00  0.00    +0.000 OA
ENDROOT
BRANCH   2   9
ATOM      9  C   UNL     1     -45.205 -14.489 -26.784  0.00  0.00    +0.000 A 
ATOM     10  C   UNL     1     -44.648 -14.686 -28.053  0.00  0.00    +0.000 A 
ATOM     11  C   UNL     1     -45.135 -13.972 -29.152  0.00  0.00    +0.000 A 
ATOM     12  C   UNL     1     -46.181 -13.060 -28.986  0.00  0.00    +0.000 A 
ATOM     13  C   UNL     1     -46.743 -12.862 -27.722  0.00  0.00    +0.000 A 
ATOM     14  C   UNL     1     -46.257 -13.575 -26.622  0.00  0.00    +0.000 A 
ATOM     15  F   UNL     1     -46.652 -12.368 -30.052  0.00  0.00    +0.000 F 
ENDBRANCH   2   9
BRANCH   1  16
ATOM     16  C   UNL     1     -45.350 -17.436 -24.460  0.00  0.00    +0.000 C 
ATOM     17  N   UNL     1     -44.978 -16.814 -23.221  0.00  0.00    +0.000 NA
ATOM     18  O   UNL     1     -45.915 -18.561 -24.474  0.00  0.00    +0.000 OA
BRANCH  17  23
ATOM     19  C   UNL     1     -46.830 -16.276 -18.678  0.00  0.00    +0.000 C 
ATOM     20  C   UNL     1     -46.110 -17.090 -19.693  0.00  0.00    +0.000 A 
ATOM     21  C   UNL     1     -45.659 -18.370 -19.370  0.00  0.00    +0.000 A 
ATOM     22  C   UNL     1     -44.986 -19.118 -20.337  0.00  0.00    +0.000 A 
ATOM     23  C   UNL     1     -45.206 -17.350 -21.914  0.00  0.00    +0.000 A 
ATOM     24  C   UNL     1     -45.885 -16.574 -20.970  0.00  0.00    +0.000 A 
ATOM     25  N   UNL     1     -44.774 -18.598 -21.576  0.00  0.00    +0.000 NA
ENDBRANCH  17  23
ENDBRANCH   1  16
TORSDOF 3
ENDMDL
