MODEL 1
REMARK VINA RESULT:      -7.1      0.000      0.000
REMARK  Name = ZINC000006817944 PubChem-92315719
REMARK  5 active torsions:
REMARK  status: ('A' for Active; 'I' for Inactive)
REMARK    1  A    between atoms: C_2  and  O_21
REMARK    2  A    between atoms: C_5  and  C_8
REMARK    3  A    between atoms: C_12  and  C_13
REMARK    4  A    between atoms: C_15  and  O_25
REMARK    5  A    between atoms: C_16  and  O_24
REMARK                            x       y       z     vdW  Elec       q    Type
REMARK                         _______ _______ _______ _____ _____    ______ ____
ROOT
ATOM      1  C   UNL     1     -47.136  -4.042 -31.486  0.00  0.00    +0.000 C 
ATOM      2  C   UNL     1     -46.994  -5.412 -32.165  0.00  0.00    +0.000 C 
ATOM      3  C   UNL     1     -46.015  -6.273 -31.437  0.00  0.00    +0.000 C 
ATOM      4  C   UNL     1     -46.526  -5.057 -29.344  0.00  0.00    +0.000 C 
ATOM      5  C   UNL     1     -47.142  -4.057 -27.075  0.00  0.00    +0.000 C 
ATOM      6  O   UNL     1     -45.359  -7.152 -32.055  0.00  0.00    +0.000 OA
ATOM      7  O   UNL     1     -47.756  -3.079 -27.585  0.00  0.00    +0.000 OA
ATOM      8  N   UNL     1     -45.847  -6.111 -30.030  0.00  0.00    +0.000 NA
ATOM      9  N   UNL     1     -47.146  -4.130 -30.020  0.00  0.00    +0.000 NA
ATOM     10  N   UNL     1     -46.524  -5.045 -27.913  0.00  0.00    +0.000 NA
ENDROOT
BRANCH   1  14
ATOM     11  C   UNL     1     -44.120  -1.304 -32.891  0.00  0.00    +0.000 A 
ATOM     12  C   UNL     1     -44.555  -1.240 -31.563  0.00  0.00    +0.000 A 
ATOM     13  C   UNL     1     -45.535  -2.122 -31.098  0.00  0.00    +0.000 A 
ATOM     14  C   UNL     1     -46.090  -3.079 -31.960  0.00  0.00    +0.000 A 
ATOM     15  C   UNL     1     -45.655  -3.147 -33.287  0.00  0.00    +0.000 A 
ATOM     16  C   UNL     1     -44.675  -2.265 -33.752  0.00  0.00    +0.000 A 
BRANCH  11  18
ATOM     17  C   UNL     1     -41.789  -0.476 -32.890  0.00  0.00    +0.000 C 
ATOM     18  O   UNL     1     -43.140  -0.408 -33.326  0.00  0.00    +0.000 OA
ENDBRANCH  11  18
ENDBRANCH   1  14
BRANCH   5  19
ATOM     19  C   UNL     1     -47.059  -4.185 -25.610  0.00  0.00    +0.000 A 
ATOM     20  C   UNL     1     -46.774  -5.423 -25.023  0.00  0.00    +0.000 A 
ATOM     21  C   UNL     1     -46.692  -5.558 -23.626  0.00  0.00    +0.000 A 
ATOM     22  C   UNL     1     -46.899  -4.436 -22.810  0.00  0.00    +0.000 A 
ATOM     23  C   UNL     1     -47.185  -3.193 -23.399  0.00  0.00    +0.000 A 
ATOM     24  C   UNL     1     -47.264  -3.070 -24.787  0.00  0.00    +0.000 A 
BRANCH  22  26
ATOM     25  C   UNL     1     -45.730  -4.066 -20.658  0.00  0.00    +0.000 C 
ATOM     26  O   UNL     1     -46.815  -4.576 -21.421  0.00  0.00    +0.000 OA
ENDBRANCH  22  26
BRANCH  21  28
ATOM     27  C   UNL     1     -45.111  -7.376 -23.055  0.00  0.00    +0.000 C 
ATOM     28  O   UNL     1     -46.408  -6.792 -23.033  0.00  0.00    +0.000 OA
ENDBRANCH  21  28
ENDBRANCH   5  19
TORSDOF 5
ENDMDL
MODEL 2
REMARK VINA RESULT:      -6.7      1.556      1.900
REMARK  Name = ZINC000006817944 PubChem-92315719
REMARK  5 active torsions:
REMARK  status: ('A' for Active; 'I' for Inactive)
REMARK    1  A    between atoms: C_2  and  O_21
REMARK    2  A    between atoms: C_5  and  C_8
REMARK    3  A    between atoms: C_12  and  C_13
REMARK    4  A    between atoms: C_15  and  O_25
REMARK    5  A    between atoms: C_16  and  O_24
REMARK                            x       y       z     vdW  Elec       q    Type
REMARK                         _______ _______ _______ _____ _____    ______ ____
ROOT
ATOM      1  C   UNL     1     -46.728  -3.095 -32.275  0.00  0.00    +0.000 C 
ATOM      2  C   UNL     1     -46.994  -4.159 -33.350  0.00  0.00    +0.000 C 
ATOM      3  C   UNL     1     -46.315  -5.446 -33.010  0.00  0.00    +0.000 C 
ATOM      4  C   UNL     1     -46.455  -4.866 -30.609  0.00  0.00    +0.000 C 
ATOM      5  C   UNL     1     -46.760  -4.508 -28.098  0.00  0.00    +0.000 C 
ATOM      6  O   UNL     1     -45.945  -6.230 -33.922  0.00  0.00    +0.000 OA
ATOM      7  O   UNL     1     -47.055  -3.288 -28.228  0.00  0.00    +0.000 OA
ATOM      8  N   UNL     1     -46.114  -5.794 -31.641  0.00  0.00    +0.000 NA
ATOM      9  N   UNL     1     -46.771  -3.638 -30.911  0.00  0.00    +0.000 NA
ATOM     10  N   UNL     1     -46.457  -5.311 -29.248  0.00  0.00    +0.000 NA
ENDROOT
BRANCH   1  14
ATOM     11  C   UNL     1     -43.013  -1.042 -33.017  0.00  0.00    +0.000 A 
ATOM     12  C   UNL     1     -43.881  -0.575 -32.025  0.00  0.00    +0.000 A 
ATOM     13  C   UNL     1     -45.090  -1.232 -31.778  0.00  0.00    +0.000 A 
ATOM     14  C   UNL     1     -45.443  -2.366 -32.524  0.00  0.00    +0.000 A 
ATOM     15  C   UNL     1     -44.574  -2.837 -33.515  0.00  0.00    +0.000 A 
ATOM     16  C   UNL     1     -43.366  -2.180 -33.761  0.00  0.00    +0.000 A 
BRANCH  11  18
ATOM     17  C   UNL     1     -40.837  -0.173 -32.224  0.00  0.00    +0.000 C 
ATOM     18  O   UNL     1     -41.812  -0.363 -33.241  0.00  0.00    +0.000 OA
ENDBRANCH  11  18
ENDBRANCH   1  14
BRANCH   5  19
ATOM     19  C   UNL     1     -46.726  -5.113 -26.754  0.00  0.00    +0.000 A 
ATOM     20  C   UNL     1     -46.216  -6.404 -26.573  0.00  0.00    +0.000 A 
ATOM     21  C   UNL     1     -46.177  -6.992 -25.297  0.00  0.00    +0.000 A 
ATOM     22  C   UNL     1     -46.656  -6.275 -24.190  0.00  0.00    +0.000 A 
ATOM     23  C   UNL     1     -47.167  -4.980 -24.373  0.00  0.00    +0.000 A 
ATOM     24  C   UNL     1     -47.201  -4.404 -25.644  0.00  0.00    +0.000 A 
BRANCH  22  26
ATOM     25  C   UNL     1     -47.756  -7.444 -22.305  0.00  0.00    +0.000 C 
ATOM     26  O   UNL     1     -46.615  -6.866 -22.923  0.00  0.00    +0.000 OA
ENDBRANCH  22  26
BRANCH  21  28
ATOM     27  C   UNL     1     -46.432  -9.454 -25.363  0.00  0.00    +0.000 C 
ATOM     28  O   UNL     1     -45.669  -8.281 -25.109  0.00  0.00    +0.000 OA
ENDBRANCH  21  28
ENDBRANCH   5  19
TORSDOF 5
ENDMDL
MODEL 3
REMARK VINA RESULT:      -6.1      9.292     14.428
REMARK  Name = ZINC000006817944 PubChem-92315719
REMARK  5 active torsions:
REMARK  status: ('A' for Active; 'I' for Inactive)
REMARK    1  A    between atoms: C_2  and  O_21
REMARK    2  A    between atoms: C_5  and  C_8
REMARK    3  A    between atoms: C_12  and  C_13
REMARK    4  A    between atoms: C_15  and  O_25
REMARK    5  A    between atoms: C_16  and  O_24
REMARK                            x       y       z     vdW  Elec       q    Type
REMARK                         _______ _______ _______ _____ _____    ______ ____
ROOT
ATOM      1  C   UNL     1     -43.815 -17.573 -23.630  0.00  0.00    +0.000 C 
ATOM      2  C   UNL     1     -43.805 -18.988 -24.224  0.00  0.00    +0.000 C 
ATOM      3  C   UNL     1     -44.989 -19.207 -25.109  0.00  0.00    +0.000 C 
ATOM      4  C   UNL     1     -45.067 -16.779 -25.576  0.00  0.00    +0.000 C 
ATOM      5  C   UNL     1     -45.105 -14.341 -26.340  0.00  0.00    +0.000 C 
ATOM      6  O   UNL     1     -45.469 -20.361 -25.254  0.00  0.00    +0.000 OA
ATOM      7  O   UNL     1     -44.330 -13.959 -25.420  0.00  0.00    +0.000 OA
ATOM      8  N   UNL     1     -45.556 -18.101 -25.809  0.00  0.00    +0.000 NA
ATOM      9  N   UNL     1     -44.239 -16.551 -24.596  0.00  0.00    +0.000 NA
ATOM     10  N   UNL     1     -45.489 -15.720 -26.443  0.00  0.00    +0.000 NA
ENDROOT
BRANCH   1  14
ATOM     11  C   UNL     1     -46.161 -17.322 -20.025  0.00  0.00    +0.000 A 
ATOM     12  C   UNL     1     -45.746 -18.570 -20.501  0.00  0.00    +0.000 A 
ATOM     13  C   UNL     1     -44.986 -18.663 -21.671  0.00  0.00    +0.000 A 
ATOM     14  C   UNL     1     -44.635 -17.504 -22.378  0.00  0.00    +0.000 A 
ATOM     15  C   UNL     1     -45.046 -16.254 -21.902  0.00  0.00    +0.000 A 
ATOM     16  C   UNL     1     -45.805 -16.162 -20.732  0.00  0.00    +0.000 A 
BRANCH  11  18
ATOM     17  C   UNL     1     -47.529 -16.064 -18.393  0.00  0.00    +0.000 C 
ATOM     18  O   UNL     1     -46.920 -17.263 -18.853  0.00  0.00    +0.000 OA
ENDBRANCH  11  18
ENDBRANCH   1  14
BRANCH   5  19
ATOM     19  C   UNL     1     -45.620 -13.363 -27.315  0.00  0.00    +0.000 A 
ATOM     20  C   UNL     1     -46.030 -12.093 -26.893  0.00  0.00    +0.000 A 
ATOM     21  C   UNL     1     -46.523 -11.152 -27.813  0.00  0.00    +0.000 A 
ATOM     22  C   UNL     1     -46.606 -11.490 -29.173  0.00  0.00    +0.000 A 
ATOM     23  C   UNL     1     -46.194 -12.765 -29.595  0.00  0.00    +0.000 A 
ATOM     24  C   UNL     1     -45.705 -13.693 -28.673  0.00  0.00    +0.000 A 
BRANCH  22  26
ATOM     25  C   UNL     1     -46.286  -9.952 -31.086  0.00  0.00    +0.000 C 
ATOM     26  O   UNL     1     -47.097 -10.549 -30.083  0.00  0.00    +0.000 OA
ENDBRANCH  22  26
BRANCH  21  28
ATOM     27  C   UNL     1     -46.024  -8.809 -27.185  0.00  0.00    +0.000 C 
ATOM     28  O   UNL     1     -46.934  -9.881 -27.400  0.00  0.00    +0.000 OA
ENDBRANCH  21  28
ENDBRANCH   5  19
TORSDOF 5
ENDMDL
