MODEL 1
REMARK VINA RESULT:      -6.0      0.000      0.000
REMARK  Name = ZINC000011118389 ZINC11118389 PubChem-41826645
REMARK  6 active torsions:
REMARK  status: ('A' for Active; 'I' for Inactive)
REMARK    1  A    between atoms: C_2  and  C_3
REMARK    2  A    between atoms: C_15  and  C_16
REMARK    3  A    between atoms: C_15  and  N_26
REMARK    4  A    between atoms: C_17  and  C_19
REMARK    5  A    between atoms: C_17  and  N_27
REMARK    6  A    between atoms: C_19  and  O_25
REMARK                            x       y       z     vdW  Elec       q    Type
REMARK                         _______ _______ _______ _____ _____    ______ ____
ROOT
ATOM      1  C   UNL     1     -45.672 -14.086 -24.619  0.00  0.00    +0.000 A 
ATOM      2  C   UNL     1     -45.143 -15.217 -25.235  0.00  0.00    +0.000 A 
ATOM      3  C   UNL     1     -44.962 -16.387 -24.501  0.00  0.00    +0.000 A 
ATOM      4  C   UNL     1     -45.308 -16.456 -23.140  0.00  0.00    +0.000 A 
ATOM      5  C   UNL     1     -45.856 -15.305 -22.505  0.00  0.00    +0.000 A 
ATOM      6  C   UNL     1     -46.031 -14.137 -23.271  0.00  0.00    +0.000 A 
ATOM      7  C   UNL     1     -46.275 -15.275 -21.070  0.00  0.00    +0.000 A 
ATOM      8  C   UNL     1     -46.981 -14.159 -20.581  0.00  0.00    +0.000 A 
ATOM      9  C   UNL     1     -47.382 -14.086 -19.245  0.00  0.00    +0.000 A 
ATOM     10  C   UNL     1     -47.083 -15.131 -18.371  0.00  0.00    +0.000 A 
ATOM     11  C   UNL     1     -46.382 -16.244 -18.834  0.00  0.00    +0.000 A 
ATOM     12  C   UNL     1     -45.980 -16.320 -20.173  0.00  0.00    +0.000 A 
ATOM     13  S   UNL     1     -45.104 -17.723 -20.710  0.00  0.00    +0.000 S 
ATOM     14  O   UNL     1     -43.692 -17.682 -20.197  0.00  0.00    +0.000 OA
ATOM     15  O   UNL     1     -45.798 -18.965 -20.225  0.00  0.00    +0.000 OA
ATOM     16  N   UNL     1     -45.103 -17.695 -22.432  0.00  0.00    +0.000 N 
ENDROOT
BRANCH   1  18
ATOM     17  C   UNL     1     -46.260 -13.180 -26.845  0.00  0.00    +0.000 C 
ATOM     18  C   UNL     1     -45.881 -12.842 -25.414  0.00  0.00    +0.000 C 
ENDBRANCH   1  18
BRANCH  16  19
ATOM     19  C   UNL     1     -44.785 -18.937 -23.131  0.00  0.00    +0.000 C 
BRANCH  19  20
ATOM     20  C   UNL     1     -43.355 -19.300 -22.916  0.00  0.00    +0.000 C 
ATOM     21  O   UNL     1     -42.450 -18.622 -23.471  0.00  0.00    +0.000 OA
ATOM     22  N   UNL     1     -43.024 -20.416 -22.086  0.00  0.00    +0.000 NA
BRANCH  22  23
ATOM     23  C   UNL     1     -41.655 -20.867 -21.883  0.00  0.00    +0.000 C 
ATOM     24  C   UNL     1     -41.476 -22.248 -22.485  0.00  0.00    +0.000 C 
BRANCH  23  25
ATOM     25  C   UNL     1     -41.356 -20.934 -20.397  0.00  0.00    +0.000 C 
BRANCH  25  27
ATOM     26  C   UNL     1     -42.189 -21.183 -18.370  0.00  0.00    +0.000 C 
ATOM     27  O   UNL     1     -42.539 -20.812 -19.667  0.00  0.00    +0.000 OA
ENDBRANCH  25  27
ENDBRANCH  23  25
ENDBRANCH  22  23
ENDBRANCH  19  20
ENDBRANCH  16  19
TORSDOF 6
ENDMDL
MODEL 2
REMARK VINA RESULT:      -5.9     11.048     14.818
REMARK  Name = ZINC000011118389 ZINC11118389 PubChem-41826645
REMARK  6 active torsions:
REMARK  status: ('A' for Active; 'I' for Inactive)
REMARK    1  A    between atoms: C_2  and  C_3
REMARK    2  A    between atoms: C_15  and  C_16
REMARK    3  A    between atoms: C_15  and  N_26
REMARK    4  A    between atoms: C_17  and  C_19
REMARK    5  A    between atoms: C_17  and  N_27
REMARK    6  A    between atoms: C_19  and  O_25
REMARK                            x       y       z     vdW  Elec       q    Type
REMARK                         _______ _______ _______ _____ _____    ______ ____
ROOT
ATOM      1  C   UNL     1     -47.401  -2.754 -24.575  0.00  0.00    +0.000 A 
ATOM      2  C   UNL     1     -47.744  -2.156 -25.785  0.00  0.00    +0.000 A 
ATOM      3  C   UNL     1     -47.658  -2.884 -26.969  0.00  0.00    +0.000 A 
ATOM      4  C   UNL     1     -47.230  -4.224 -26.973  0.00  0.00    +0.000 A 
ATOM      5  C   UNL     1     -46.884  -4.844 -25.738  0.00  0.00    +0.000 A 
ATOM      6  C   UNL     1     -46.983  -4.086 -24.556  0.00  0.00    +0.000 A 
ATOM      7  C   UNL     1     -46.436  -6.266 -25.626  0.00  0.00    +0.000 A 
ATOM      8  C   UNL     1     -46.298  -6.848 -24.352  0.00  0.00    +0.000 A 
ATOM      9  C   UNL     1     -45.874  -8.170 -24.202  0.00  0.00    +0.000 A 
ATOM     10  C   UNL     1     -45.576  -8.936 -25.328  0.00  0.00    +0.000 A 
ATOM     11  C   UNL     1     -45.702  -8.379 -26.601  0.00  0.00    +0.000 A 
ATOM     12  C   UNL     1     -46.129  -7.055 -26.753  0.00  0.00    +0.000 A 
ATOM     13  S   UNL     1     -46.268  -6.395 -28.357  0.00  0.00    +0.000 S 
ATOM     14  O   UNL     1     -44.906  -6.113 -28.923  0.00  0.00    +0.000 OA
ATOM     15  O   UNL     1     -47.008  -7.364 -29.236  0.00  0.00    +0.000 OA
ATOM     16  N   UNL     1     -47.165  -4.929 -28.228  0.00  0.00    +0.000 N 
ENDROOT
BRANCH   1  18
ATOM     17  C   UNL     1     -47.102  -2.825 -22.120  0.00  0.00    +0.000 C 
ATOM     18  C   UNL     1     -47.514  -1.975 -23.309  0.00  0.00    +0.000 C 
ENDBRANCH   1  18
BRANCH  16  19
ATOM     19  C   UNL     1     -47.755  -4.386 -29.448  0.00  0.00    +0.000 C 
BRANCH  19  20
ATOM     20  C   UNL     1     -46.687  -3.900 -30.367  0.00  0.00    +0.000 C 
ATOM     21  O   UNL     1     -45.911  -2.982 -29.989  0.00  0.00    +0.000 OA
ATOM     22  N   UNL     1     -46.556  -4.474 -31.669  0.00  0.00    +0.000 NA
BRANCH  22  23
ATOM     23  C   UNL     1     -45.581  -4.005 -32.643  0.00  0.00    +0.000 C 
ATOM     24  C   UNL     1     -46.259  -3.106 -33.657  0.00  0.00    +0.000 C 
BRANCH  23  25
ATOM     25  C   UNL     1     -44.970  -5.193 -33.365  0.00  0.00    +0.000 C 
BRANCH  25  27
ATOM     26  C   UNL     1     -44.062  -6.935 -32.365  0.00  0.00    +0.000 C 
ATOM     27  O   UNL     1     -43.813  -5.607 -32.705  0.00  0.00    +0.000 OA
ENDBRANCH  25  27
ENDBRANCH  23  25
ENDBRANCH  22  23
ENDBRANCH  19  20
ENDBRANCH  16  19
TORSDOF 6
ENDMDL
MODEL 3
REMARK VINA RESULT:      -5.9     12.608     16.903
REMARK  Name = ZINC000011118389 ZINC11118389 PubChem-41826645
REMARK  6 active torsions:
REMARK  status: ('A' for Active; 'I' for Inactive)
REMARK    1  A    between atoms: C_2  and  C_3
REMARK    2  A    between atoms: C_15  and  C_16
REMARK    3  A    between atoms: C_15  and  N_26
REMARK    4  A    between atoms: C_17  and  C_19
REMARK    5  A    between atoms: C_17  and  N_27
REMARK    6  A    between atoms: C_19  and  O_25
REMARK                            x       y       z     vdW  Elec       q    Type
REMARK                         _______ _______ _______ _____ _____    ______ ____
ROOT
ATOM      1  C   UNL     1     -43.315  -1.236 -32.413  0.00  0.00    +0.000 A 
ATOM      2  C   UNL     1     -44.519  -1.072 -31.733  0.00  0.00    +0.000 A 
ATOM      3  C   UNL     1     -45.472  -2.088 -31.754  0.00  0.00    +0.000 A 
ATOM      4  C   UNL     1     -45.245  -3.289 -32.449  0.00  0.00    +0.000 A 
ATOM      5  C   UNL     1     -44.012  -3.467 -33.140  0.00  0.00    +0.000 A 
ATOM      6  C   UNL     1     -43.065  -2.426 -33.101  0.00  0.00    +0.000 A 
ATOM      7  C   UNL     1     -43.660  -4.710 -33.894  0.00  0.00    +0.000 A 
ATOM      8  C   UNL     1     -42.350  -4.872 -34.383  0.00  0.00    +0.000 A 
ATOM      9  C   UNL     1     -41.982  -6.013 -35.099  0.00  0.00    +0.000 A 
ATOM     10  C   UNL     1     -42.921  -7.015 -35.341  0.00  0.00    +0.000 A 
ATOM     11  C   UNL     1     -44.226  -6.873 -34.868  0.00  0.00    +0.000 A 
ATOM     12  C   UNL     1     -44.596  -5.731 -34.148  0.00  0.00    +0.000 A 
ATOM     13  S   UNL     1     -46.234  -5.590 -33.580  0.00  0.00    +0.000 S 
ATOM     14  O   UNL     1     -47.156  -5.276 -34.724  0.00  0.00    +0.000 OA
ATOM     15  O   UNL     1     -46.648  -6.874 -32.916  0.00  0.00    +0.000 OA
ATOM     16  N   UNL     1     -46.266  -4.307 -32.432  0.00  0.00    +0.000 N 
ENDROOT
BRANCH   1  18
ATOM     17  C   UNL     1     -40.901  -0.725 -32.590  0.00  0.00    +0.000 C 
ATOM     18  C   UNL     1     -42.290  -0.154 -32.371  0.00  0.00    +0.000 C 
ENDBRANCH   1  18
BRANCH  16  19
ATOM     19  C   UNL     1     -47.408  -4.235 -31.525  0.00  0.00    +0.000 C 
BRANCH  19  20
ATOM     20  C   UNL     1     -46.974  -4.504 -30.124  0.00  0.00    +0.000 C 
ATOM     21  O   UNL     1     -47.317  -3.714 -29.205  0.00  0.00    +0.000 OA
ATOM     22  N   UNL     1     -46.171  -5.651 -29.838  0.00  0.00    +0.000 NA
BRANCH  22  23
ATOM     23  C   UNL     1     -45.658  -5.942 -28.508  0.00  0.00    +0.000 C 
ATOM     24  C   UNL     1     -44.184  -6.287 -28.590  0.00  0.00    +0.000 C 
BRANCH  23  25
ATOM     25  C   UNL     1     -46.409  -7.121 -27.918  0.00  0.00    +0.000 C 
BRANCH  25  27
ATOM     26  C   UNL     1     -46.971  -9.138 -28.609  0.00  0.00    +0.000 C 
ATOM     27  O   UNL     1     -47.112  -7.787 -28.922  0.00  0.00    +0.000 OA
ENDBRANCH  25  27
ENDBRANCH  23  25
ENDBRANCH  22  23
ENDBRANCH  19  20
ENDBRANCH  16  19
TORSDOF 6
ENDMDL
