MODEL 1
REMARK VINA RESULT:      -7.5      0.000      0.000
REMARK  Name = ZINC000020924276 ZINC20924276 PubChem-92705262
REMARK  4 active torsions:
REMARK  status: ('A' for Active; 'I' for Inactive)
REMARK    1  A    between atoms: C_5  and  C_8
REMARK    2  A    between atoms: C_12  and  C_13
REMARK    3  A    between atoms: C_15  and  O_24
REMARK    4  A    between atoms: C_17  and  O_23
REMARK                            x       y       z     vdW  Elec       q    Type
REMARK                         _______ _______ _______ _____ _____    ______ ____
ROOT
ATOM      1  C   UNL     1     -47.152  -4.010 -31.493  0.00  0.00    +0.000 C 
ATOM      2  C   UNL     1     -47.031  -5.384 -32.167  0.00  0.00    +0.000 C 
ATOM      3  C   UNL     1     -46.064  -6.258 -31.436  0.00  0.00    +0.000 C 
ATOM      4  C   UNL     1     -46.556  -5.026 -29.348  0.00  0.00    +0.000 C 
ATOM      5  C   UNL     1     -47.156  -4.010 -27.082  0.00  0.00    +0.000 C 
ATOM      6  O   UNL     1     -45.422  -7.147 -32.052  0.00  0.00    +0.000 OA
ATOM      7  O   UNL     1     -47.755  -3.024 -27.595  0.00  0.00    +0.000 OA
ATOM      8  N   UNL     1     -45.893  -6.093 -30.030  0.00  0.00    +0.000 NA
ATOM      9  N   UNL     1     -47.162  -4.093 -30.026  0.00  0.00    +0.000 NA
ATOM     10  N   UNL     1     -46.554  -5.009 -27.916  0.00  0.00    +0.000 NA
ENDROOT
BRANCH   1  15
ATOM     11  C   UNL     1     -43.045  -0.409 -33.404  0.00  0.00    +0.000 C 
ATOM     12  C   UNL     1     -44.100  -1.329 -32.905  0.00  0.00    +0.000 A 
ATOM     13  C   UNL     1     -44.537  -1.239 -31.581  0.00  0.00    +0.000 A 
ATOM     14  C   UNL     1     -45.530  -2.104 -31.112  0.00  0.00    +0.000 A 
ATOM     15  C   UNL     1     -46.093  -3.063 -31.970  0.00  0.00    +0.000 A 
ATOM     16  C   UNL     1     -45.649  -3.150 -33.294  0.00  0.00    +0.000 A 
ATOM     17  C   UNL     1     -44.655  -2.285 -33.761  0.00  0.00    +0.000 A 
ENDBRANCH   1  15
BRANCH   5  18
ATOM     18  C   UNL     1     -47.074  -4.133 -25.616  0.00  0.00    +0.000 A 
ATOM     19  C   UNL     1     -47.225  -3.004 -24.801  0.00  0.00    +0.000 A 
ATOM     20  C   UNL     1     -47.148  -3.114 -23.404  0.00  0.00    +0.000 A 
ATOM     21  C   UNL     1     -46.920  -4.366 -22.825  0.00  0.00    +0.000 A 
ATOM     22  C   UNL     1     -46.768  -5.504 -23.624  0.00  0.00    +0.000 A 
ATOM     23  C   UNL     1     -46.847  -5.382 -25.020  0.00  0.00    +0.000 A 
BRANCH  22  25
ATOM     24  C   UNL     1     -47.584  -7.667 -22.746  0.00  0.00    +0.000 C 
ATOM     25  O   UNL     1     -46.541  -6.738 -23.007  0.00  0.00    +0.000 OA
ENDBRANCH  22  25
BRANCH  20  27
ATOM     26  C   UNL     1     -46.625  -1.880 -21.325  0.00  0.00    +0.000 C 
ATOM     27  O   UNL     1     -47.295  -2.001 -22.572  0.00  0.00    +0.000 OA
ENDBRANCH  20  27
ENDBRANCH   5  18
TORSDOF 4
ENDMDL
MODEL 2
REMARK VINA RESULT:      -7.4      0.344      2.204
REMARK  Name = ZINC000020924276 ZINC20924276 PubChem-92705262
REMARK  4 active torsions:
REMARK  status: ('A' for Active; 'I' for Inactive)
REMARK    1  A    between atoms: C_5  and  C_8
REMARK    2  A    between atoms: C_12  and  C_13
REMARK    3  A    between atoms: C_15  and  O_24
REMARK    4  A    between atoms: C_17  and  O_23
REMARK                            x       y       z     vdW  Elec       q    Type
REMARK                         _______ _______ _______ _____ _____    ______ ____
ROOT
ATOM      1  C   UNL     1     -47.184  -3.976 -31.508  0.00  0.00    +0.000 C 
ATOM      2  C   UNL     1     -47.073  -5.331 -32.220  0.00  0.00    +0.000 C 
ATOM      3  C   UNL     1     -46.103  -6.228 -31.521  0.00  0.00    +0.000 C 
ATOM      4  C   UNL     1     -46.576  -5.052 -29.396  0.00  0.00    +0.000 C 
ATOM      5  C   UNL     1     -47.157  -4.097 -27.098  0.00  0.00    +0.000 C 
ATOM      6  O   UNL     1     -45.469  -7.102 -32.165  0.00  0.00    +0.000 OA
ATOM      7  O   UNL     1     -47.756  -3.097 -27.579  0.00  0.00    +0.000 OA
ATOM      8  N   UNL     1     -45.922  -6.103 -30.112  0.00  0.00    +0.000 NA
ATOM      9  N   UNL     1     -47.184  -4.099 -30.043  0.00  0.00    +0.000 NA
ATOM     10  N   UNL     1     -46.563  -5.076 -27.964  0.00  0.00    +0.000 NA
ENDROOT
BRANCH   1  15
ATOM     11  C   UNL     1     -43.079  -0.337 -33.348  0.00  0.00    +0.000 C 
ATOM     12  C   UNL     1     -44.134  -1.267 -32.867  0.00  0.00    +0.000 A 
ATOM     13  C   UNL     1     -44.562  -1.212 -31.538  0.00  0.00    +0.000 A 
ATOM     14  C   UNL     1     -45.554  -2.086 -31.087  0.00  0.00    +0.000 A 
ATOM     15  C   UNL     1     -46.125  -3.020 -31.966  0.00  0.00    +0.000 A 
ATOM     16  C   UNL     1     -45.690  -3.073 -33.294  0.00  0.00    +0.000 A 
ATOM     17  C   UNL     1     -44.697  -2.198 -33.745  0.00  0.00    +0.000 A 
ENDBRANCH   1  15
BRANCH   5  18
ATOM     18  C   UNL     1     -47.065  -4.262 -25.637  0.00  0.00    +0.000 A 
ATOM     19  C   UNL     1     -46.797  -5.519 -25.081  0.00  0.00    +0.000 A 
ATOM     20  C   UNL     1     -46.708  -5.683 -23.690  0.00  0.00    +0.000 A 
ATOM     21  C   UNL     1     -46.888  -4.576 -22.856  0.00  0.00    +0.000 A 
ATOM     22  C   UNL     1     -47.156  -3.314 -23.393  0.00  0.00    +0.000 A 
ATOM     23  C   UNL     1     -47.243  -3.162 -24.786  0.00  0.00    +0.000 A 
BRANCH  22  25
ATOM     24  C   UNL     1     -46.746  -2.186 -21.231  0.00  0.00    +0.000 C 
ATOM     25  O   UNL     1     -47.331  -2.232 -22.525  0.00  0.00    +0.000 OA
ENDBRANCH  22  25
BRANCH  20  27
ATOM     26  C   UNL     1     -46.437  -7.141 -21.710  0.00  0.00    +0.000 C 
ATOM     27  O   UNL     1     -46.442  -6.929 -23.115  0.00  0.00    +0.000 OA
ENDBRANCH  20  27
ENDBRANCH   5  18
TORSDOF 4
ENDMDL
MODEL 3
REMARK VINA RESULT:      -7.0      1.443      1.963
REMARK  Name = ZINC000020924276 ZINC20924276 PubChem-92705262
REMARK  4 active torsions:
REMARK  status: ('A' for Active; 'I' for Inactive)
REMARK    1  A    between atoms: C_5  and  C_8
REMARK    2  A    between atoms: C_12  and  C_13
REMARK    3  A    between atoms: C_15  and  O_24
REMARK    4  A    between atoms: C_17  and  O_23
REMARK                            x       y       z     vdW  Elec       q    Type
REMARK                         _______ _______ _______ _____ _____    ______ ____
ROOT
ATOM      1  C   UNL     1     -46.739  -3.033 -32.268  0.00  0.00    +0.000 C 
ATOM      2  C   UNL     1     -47.047  -4.070 -33.357  0.00  0.00    +0.000 C 
ATOM      3  C   UNL     1     -46.412  -5.386 -33.041  0.00  0.00    +0.000 C 
ATOM      4  C   UNL     1     -46.520  -4.838 -30.631  0.00  0.00    +0.000 C 
ATOM      5  C   UNL     1     -46.800  -4.512 -28.112  0.00  0.00    +0.000 C 
ATOM      6  O   UNL     1     -46.075  -6.165 -33.968  0.00  0.00    +0.000 OA
ATOM      7  O   UNL     1     -47.053  -3.280 -28.222  0.00  0.00    +0.000 OA
ATOM      8  N   UNL     1     -46.218  -5.762 -31.680  0.00  0.00    +0.000 NA
ATOM      9  N   UNL     1     -46.793  -3.596 -30.912  0.00  0.00    +0.000 NA
ATOM     10  N   UNL     1     -46.531  -5.305 -29.277  0.00  0.00    +0.000 NA
ENDROOT
BRANCH   1  15
ATOM     11  C   UNL     1     -41.715  -0.304 -33.161  0.00  0.00    +0.000 C 
ATOM     12  C   UNL     1     -43.003  -1.012 -32.938  0.00  0.00    +0.000 A 
ATOM     13  C   UNL     1     -43.338  -2.118 -33.723  0.00  0.00    +0.000 A 
ATOM     14  C   UNL     1     -44.548  -2.783 -33.512  0.00  0.00    +0.000 A 
ATOM     15  C   UNL     1     -45.430  -2.345 -32.511  0.00  0.00    +0.000 A 
ATOM     16  C   UNL     1     -45.090  -1.235 -31.730  0.00  0.00    +0.000 A 
ATOM     17  C   UNL     1     -43.879  -0.570 -31.942  0.00  0.00    +0.000 A 
ENDBRANCH   1  15
BRANCH   5  18
ATOM     18  C   UNL     1     -46.781  -5.139 -26.779  0.00  0.00    +0.000 A 
ATOM     19  C   UNL     1     -47.115  -4.393 -25.641  0.00  0.00    +0.000 A 
ATOM     20  C   UNL     1     -47.098  -4.984 -24.368  0.00  0.00    +0.000 A 
ATOM     21  C   UNL     1     -46.745  -6.330 -24.240  0.00  0.00    +0.000 A 
ATOM     22  C   UNL     1     -46.408  -7.089 -25.365  0.00  0.00    +0.000 A 
ATOM     23  C   UNL     1     -46.429  -6.488 -26.633  0.00  0.00    +0.000 A 
BRANCH  22  25
ATOM     24  C   UNL     1     -46.032  -9.062 -23.922  0.00  0.00    +0.000 C 
ATOM     25  O   UNL     1     -46.060  -8.432 -25.196  0.00  0.00    +0.000 OA
ENDBRANCH  22  25
BRANCH  20  27
ATOM     26  C   UNL     1     -47.301  -2.845 -23.142  0.00  0.00    +0.000 C 
ATOM     27  O   UNL     1     -47.428  -4.258 -23.220  0.00  0.00    +0.000 OA
ENDBRANCH  20  27
ENDBRANCH   5  18
TORSDOF 4
ENDMDL
