MODEL 1
REMARK VINA RESULT:      -6.9      0.000      0.000
REMARK  Name = ZINC000524729961
REMARK  9 active torsions:
REMARK  status: ('A' for Active; 'I' for Inactive)
REMARK    1  A    between atoms: C_2  and  O_26
REMARK    2  A    between atoms: C_4  and  C_5
REMARK    3  A    between atoms: C_5  and  C_6
REMARK    4  A    between atoms: C_5  and  C_17
REMARK    5  A    between atoms: C_6  and  C_7
REMARK    6  A    between atoms: C_8  and  C_9
REMARK    7  A    between atoms: C_8  and  N_32
REMARK    8  A    between atoms: C_9  and  C_10
REMARK    9  A    between atoms: C_10  and  C_11
REMARK                            x       y       z     vdW  Elec       q    Type
REMARK                         _______ _______ _______ _____ _____    ______ ____
ROOT
ATOM      1  C   UNL     1     -45.312 -16.081 -24.452  0.00  0.00    +0.000 C 
ENDROOT
BRANCH   1   2
ATOM      2  C   UNL     1     -44.684 -17.435 -24.661  0.00  0.00    +0.000 A 
ATOM      3  C   UNL     1     -42.706 -18.680 -24.679  0.00  0.00    +0.000 A 
ATOM      4  C   UNL     1     -41.230 -18.715 -24.504  0.00  0.00    +0.000 C 
ATOM      5  C   UNL     1     -43.389 -19.849 -25.012  0.00  0.00    +0.000 A 
ATOM      6  C   UNL     1     -44.772 -19.794 -25.173  0.00  0.00    +0.000 A 
ATOM      7  C   UNL     1     -45.439 -18.577 -24.998  0.00  0.00    +0.000 A 
ATOM      8  O   UNL     1     -43.363 -17.536 -24.517  0.00  0.00    +0.000 OA
ATOM      9  O   UNL     1     -45.408 -20.835 -25.478  0.00  0.00    +0.000 OA
ATOM     10  O   UNL     1     -46.818 -18.509 -25.165  0.00  0.00    +0.000 OA
ENDBRANCH   1   2
BRANCH   1  13
ATOM     11  C   UNL     1     -46.355 -13.475 -27.042  0.00  0.00    +0.000 A 
ATOM     12  C   UNL     1     -46.292 -14.213 -25.849  0.00  0.00    +0.000 A 
ATOM     13  C   UNL     1     -45.409 -15.294 -25.723  0.00  0.00    +0.000 A 
ATOM     14  C   UNL     1     -44.580 -15.633 -26.796  0.00  0.00    +0.000 A 
ATOM     15  C   UNL     1     -44.636 -14.905 -27.987  0.00  0.00    +0.000 A 
ATOM     16  C   UNL     1     -45.521 -13.830 -28.111  0.00  0.00    +0.000 A 
ATOM     17  O   UNL     1     -45.567 -13.115 -29.302  0.00  0.00    +0.000 OA
BRANCH  11  19
ATOM     18  C   UNL     1     -46.897 -11.076 -26.769  0.00  0.00    +0.000 C 
ATOM     19  O   UNL     1     -47.231 -12.394 -27.183  0.00  0.00    +0.000 OA
ENDBRANCH  11  19
ENDBRANCH   1  13
BRANCH   1  20
ATOM     20  C   UNL     1     -44.690 -15.280 -23.306  0.00  0.00    +0.000 C 
BRANCH  20  21
ATOM     21  C   UNL     1     -45.656 -15.124 -22.182  0.00  0.00    +0.000 C 
ATOM     22  O   UNL     1     -46.685 -14.412 -22.328  0.00  0.00    +0.000 OA
ATOM     23  N   UNL     1     -45.410 -15.806 -20.951  0.00  0.00    +0.000 NA
BRANCH  23  24
ATOM     24  C   UNL     1     -46.359 -15.827 -19.847  0.00  0.00    +0.000 C 
BRANCH  24  25
ATOM     25  C   UNL     1     -46.254 -17.131 -19.059  0.00  0.00    +0.000 C 
BRANCH  25  26
ATOM     26  C   UNL     1     -46.096 -18.343 -19.972  0.00  0.00    +0.000 C 
BRANCH  26  27
ATOM     27  C   UNL     1     -44.955 -19.211 -19.546  0.00  0.00    +0.000 A 
ATOM     28  C   UNL     1     -43.032 -20.038 -19.284  0.00  0.00    +0.000 A 
ATOM     29  C   UNL     1     -41.657 -20.208 -19.419  0.00  0.00    +0.000 A 
ATOM     30  C   UNL     1     -40.981 -19.297 -20.251  0.00  0.00    +0.000 A 
ATOM     31  C   UNL     1     -41.682 -18.265 -20.907  0.00  0.00    +0.000 A 
ATOM     32  C   UNL     1     -43.070 -18.148 -20.728  0.00  0.00    +0.000 A 
ATOM     33  N   UNL     1     -45.080 -20.261 -18.704  0.00  0.00    +0.000 NA
ATOM     34  N   UNL     1     -43.869 -20.786 -18.539  0.00  0.00    +0.000 NA
ATOM     35  N   UNL     1     -43.675 -19.053 -19.920  0.00  0.00    +0.000 N 
ENDBRANCH  26  27
ENDBRANCH  25  26
ENDBRANCH  24  25
ENDBRANCH  23  24
ENDBRANCH  20  21
ENDBRANCH   1  20
TORSDOF 9
ENDMDL
MODEL 2
REMARK VINA RESULT:      -6.7      2.835      4.804
REMARK  Name = ZINC000524729961
REMARK  9 active torsions:
REMARK  status: ('A' for Active; 'I' for Inactive)
REMARK    1  A    between atoms: C_2  and  O_26
REMARK    2  A    between atoms: C_4  and  C_5
REMARK    3  A    between atoms: C_5  and  C_6
REMARK    4  A    between atoms: C_5  and  C_17
REMARK    5  A    between atoms: C_6  and  C_7
REMARK    6  A    between atoms: C_8  and  C_9
REMARK    7  A    between atoms: C_8  and  N_32
REMARK    8  A    between atoms: C_9  and  C_10
REMARK    9  A    between atoms: C_10  and  C_11
REMARK                            x       y       z     vdW  Elec       q    Type
REMARK                         _______ _______ _______ _____ _____    ______ ____
ROOT
ATOM      1  C   UNL     1     -45.156 -16.423 -23.670  0.00  0.00    +0.000 C 
ENDROOT
BRANCH   1   2
ATOM      2  C   UNL     1     -44.374 -17.248 -24.659  0.00  0.00    +0.000 A 
ATOM      3  C   UNL     1     -42.326 -17.561 -25.741  0.00  0.00    +0.000 A 
ATOM      4  C   UNL     1     -40.922 -17.119 -25.946  0.00  0.00    +0.000 C 
ATOM      5  C   UNL     1     -42.814 -18.661 -26.446  0.00  0.00    +0.000 A 
ATOM      6  C   UNL     1     -44.133 -19.057 -26.241  0.00  0.00    +0.000 A 
ATOM      7  C   UNL     1     -44.934 -18.349 -25.339  0.00  0.00    +0.000 A 
ATOM      8  O   UNL     1     -43.107 -16.905 -24.888  0.00  0.00    +0.000 OA
ATOM      9  O   UNL     1     -44.596 -20.043 -26.870  0.00  0.00    +0.000 OA
ATOM     10  O   UNL     1     -46.255 -18.731 -25.132  0.00  0.00    +0.000 OA
ENDBRANCH   1   2
BRANCH   1  13
ATOM     11  C   UNL     1     -46.292 -13.563 -25.931  0.00  0.00    +0.000 A 
ATOM     12  C   UNL     1     -45.990 -14.854 -25.471  0.00  0.00    +0.000 A 
ATOM     13  C   UNL     1     -45.467 -15.052 -24.186  0.00  0.00    +0.000 A 
ATOM     14  C   UNL     1     -45.252 -13.949 -23.354  0.00  0.00    +0.000 A 
ATOM     15  C   UNL     1     -45.549 -12.660 -23.803  0.00  0.00    +0.000 A 
ATOM     16  C   UNL     1     -46.067 -12.466 -25.087  0.00  0.00    +0.000 A 
ATOM     17  O   UNL     1     -46.358 -11.177 -25.520  0.00  0.00    +0.000 OA
BRANCH  11  19
ATOM     18  C   UNL     1     -46.036 -13.494 -28.391  0.00  0.00    +0.000 C 
ATOM     19  O   UNL     1     -46.814 -13.349 -27.210  0.00  0.00    +0.000 OA
ENDBRANCH  11  19
ENDBRANCH   1  13
BRANCH   1  20
ATOM     20  C   UNL     1     -44.551 -16.403 -22.265  0.00  0.00    +0.000 C 
BRANCH  20  21
ATOM     21  C   UNL     1     -45.445 -17.090 -21.290  0.00  0.00    +0.000 C 
ATOM     22  O   UNL     1     -45.879 -18.247 -21.538  0.00  0.00    +0.000 OA
ATOM     23  N   UNL     1     -45.782 -16.430 -20.069  0.00  0.00    +0.000 NA
BRANCH  23  24
ATOM     24  C   UNL     1     -46.533 -17.071 -18.997  0.00  0.00    +0.000 C 
BRANCH  24  25
ATOM     25  C   UNL     1     -47.596 -16.130 -18.435  0.00  0.00    +0.000 C 
BRANCH  25  26
ATOM     26  C   UNL     1     -47.556 -14.756 -19.095  0.00  0.00    +0.000 C 
BRANCH  26  27
ATOM     27  C   UNL     1     -46.868 -13.748 -18.232  0.00  0.00    +0.000 A 
ATOM     28  C   UNL     1     -46.055 -11.956 -17.470  0.00  0.00    +0.000 A 
ATOM     29  C   UNL     1     -45.696 -10.612 -17.404  0.00  0.00    +0.000 A 
ATOM     30  C   UNL     1     -46.039  -9.806 -18.504  0.00  0.00    +0.000 A 
ATOM     31  C   UNL     1     -46.718 -10.352 -19.613  0.00  0.00    +0.000 A 
ATOM     32  C   UNL     1     -47.052 -11.716 -19.617  0.00  0.00    +0.000 A 
ATOM     33  N   UNL     1     -46.348 -14.027 -17.015  0.00  0.00    +0.000 NA
ATOM     34  N   UNL     1     -45.833 -12.898 -16.534  0.00  0.00    +0.000 NA
ATOM     35  N   UNL     1     -46.697 -12.451 -18.534  0.00  0.00    +0.000 N 
ENDBRANCH  26  27
ENDBRANCH  25  26
ENDBRANCH  24  25
ENDBRANCH  23  24
ENDBRANCH  20  21
ENDBRANCH   1  20
TORSDOF 9
ENDMDL
MODEL 3
REMARK VINA RESULT:      -6.7      1.441      2.131
REMARK  Name = ZINC000524729961
REMARK  9 active torsions:
REMARK  status: ('A' for Active; 'I' for Inactive)
REMARK    1  A    between atoms: C_2  and  O_26
REMARK    2  A    between atoms: C_4  and  C_5
REMARK    3  A    between atoms: C_5  and  C_6
REMARK    4  A    between atoms: C_5  and  C_17
REMARK    5  A    between atoms: C_6  and  C_7
REMARK    6  A    between atoms: C_8  and  C_9
REMARK    7  A    between atoms: C_8  and  N_32
REMARK    8  A    between atoms: C_9  and  C_10
REMARK    9  A    between atoms: C_10  and  C_11
REMARK                            x       y       z     vdW  Elec       q    Type
REMARK                         _______ _______ _______ _____ _____    ______ ____
ROOT
ATOM      1  C   UNL     1     -45.209 -16.069 -24.161  0.00  0.00    +0.000 C 
ENDROOT
BRANCH   1   2
ATOM      2  C   UNL     1     -44.687 -17.479 -24.265  0.00  0.00    +0.000 A 
ATOM      3  C   UNL     1     -42.890 -18.921 -23.871  0.00  0.00    +0.000 A 
ATOM      4  C   UNL     1     -41.506 -19.110 -23.365  0.00  0.00    +0.000 C 
ATOM      5  C   UNL     1     -43.590 -20.010 -24.389  0.00  0.00    +0.000 A 
ATOM      6  C   UNL     1     -44.886 -19.811 -24.860  0.00  0.00    +0.000 A 
ATOM      7  C   UNL     1     -45.452 -18.534 -24.803  0.00  0.00    +0.000 A 
ATOM      8  O   UNL     1     -43.451 -17.717 -23.827  0.00  0.00    +0.000 OA
ATOM      9  O   UNL     1     -45.535 -20.778 -25.336  0.00  0.00    +0.000 OA
ATOM     10  O   UNL     1     -46.743 -18.322 -25.278  0.00  0.00    +0.000 OA
ENDBRANCH   1   2
BRANCH   1  13
ATOM     11  C   UNL     1     -46.269 -13.733 -26.990  0.00  0.00    +0.000 A 
ATOM     12  C   UNL     1     -46.221 -14.370 -25.741  0.00  0.00    +0.000 A 
ATOM     13  C   UNL     1     -45.291 -15.390 -25.494  0.00  0.00    +0.000 A 
ATOM     14  C   UNL     1     -44.399 -15.767 -26.503  0.00  0.00    +0.000 A 
ATOM     15  C   UNL     1     -44.441 -15.138 -27.750  0.00  0.00    +0.000 A 
ATOM     16  C   UNL     1     -45.372 -14.124 -27.994  0.00  0.00    +0.000 A 
ATOM     17  O   UNL     1     -45.402 -13.508 -29.240  0.00  0.00    +0.000 OA
BRANCH  11  19
ATOM     18  C   UNL     1     -46.955 -11.357 -26.904  0.00  0.00    +0.000 C 
ATOM     19  O   UNL     1     -47.191 -12.715 -27.253  0.00  0.00    +0.000 OA
ENDBRANCH  11  19
ENDBRANCH   1  13
BRANCH   1  20
ATOM     20  C   UNL     1     -44.497 -15.220 -23.107  0.00  0.00    +0.000 C 
BRANCH  20  21
ATOM     21  C   UNL     1     -45.480 -14.513 -22.239  0.00  0.00    +0.000 C 
ATOM     22  O   UNL     1     -46.710 -14.771 -22.338  0.00  0.00    +0.000 OA
ATOM     23  N   UNL     1     -45.009 -13.563 -21.283  0.00  0.00    +0.000 NA
BRANCH  23  24
ATOM     24  C   UNL     1     -45.874 -12.925 -20.299  0.00  0.00    +0.000 C 
BRANCH  24  25
ATOM     25  C   UNL     1     -45.458 -13.301 -18.878  0.00  0.00    +0.000 C 
BRANCH  25  26
ATOM     26  C   UNL     1     -45.962 -14.683 -18.478  0.00  0.00    +0.000 C 
BRANCH  26  27
ATOM     27  C   UNL     1     -44.868 -15.702 -18.508  0.00  0.00    +0.000 A 
ATOM     28  C   UNL     1     -43.690 -17.392 -18.965  0.00  0.00    +0.000 A 
ATOM     29  C   UNL     1     -43.309 -18.592 -19.557  0.00  0.00    +0.000 A 
ATOM     30  C   UNL     1     -44.209 -19.166 -20.472  0.00  0.00    +0.000 A 
ATOM     31  C   UNL     1     -45.437 -18.538 -20.764  0.00  0.00    +0.000 A 
ATOM     32  C   UNL     1     -45.762 -17.327 -20.132  0.00  0.00    +0.000 A 
ATOM     33  N   UNL     1     -43.728 -15.604 -17.787  0.00  0.00    +0.000 NA
ATOM     34  N   UNL     1     -42.985 -16.671 -18.073  0.00  0.00    +0.000 NA
ATOM     35  N   UNL     1     -44.862 -16.816 -19.256  0.00  0.00    +0.000 N 
ENDBRANCH  26  27
ENDBRANCH  25  26
ENDBRANCH  24  25
ENDBRANCH  23  24
ENDBRANCH  20  21
ENDBRANCH   1  20
TORSDOF 9
ENDMDL
