MODEL 1
REMARK VINA RESULT:      -6.9      0.000      0.000
REMARK  Name = ZINC000006870764 PubChem-92318821
REMARK  6 active torsions:
REMARK  status: ('A' for Active; 'I' for Inactive)
REMARK    1  A    between atoms: C_2  and  O_22
REMARK    2  A    between atoms: C_3  and  O_27
REMARK    3  A    between atoms: C_5  and  C_8
REMARK    4  A    between atoms: C_10  and  C_13
REMARK    5  A    between atoms: C_14  and  O_26
REMARK    6  A    between atoms: C_15  and  O_25
REMARK                            x       y       z     vdW  Elec       q    Type
REMARK                         _______ _______ _______ _____ _____    ______ ____
ROOT
ATOM      1  C   UNL     1     -47.145  -3.577 -26.203  0.00  0.00    +0.000 C 
ATOM      2  C   UNL     1     -46.854  -5.390 -27.980  0.00  0.00    +0.000 C 
ATOM      3  C   UNL     1     -46.869  -4.951 -30.383  0.00  0.00    +0.000 C 
ATOM      4  C   UNL     1     -47.268  -6.411 -30.645  0.00  0.00    +0.000 C 
ATOM      5  C   UNL     1     -46.779  -7.303 -29.549  0.00  0.00    +0.000 C 
ATOM      6  O   UNL     1     -47.269  -2.654 -27.053  0.00  0.00    +0.000 OA
ATOM      7  O   UNL     1     -46.524  -8.511 -29.783  0.00  0.00    +0.000 OA
ATOM      8  N   UNL     1     -46.934  -4.933 -26.625  0.00  0.00    +0.000 NA
ATOM      9  N   UNL     1     -47.013  -4.564 -28.975  0.00  0.00    +0.000 NA
ATOM     10  N   UNL     1     -46.626  -6.779 -28.231  0.00  0.00    +0.000 NA
ENDROOT
BRANCH   1  14
ATOM     11  C   UNL     1     -47.349  -2.659 -22.012  0.00  0.00    +0.000 A 
ATOM     12  C   UNL     1     -47.270  -4.008 -22.439  0.00  0.00    +0.000 A 
ATOM     13  C   UNL     1     -47.205  -4.289 -23.814  0.00  0.00    +0.000 A 
ATOM     14  C   UNL     1     -47.215  -3.262 -24.765  0.00  0.00    +0.000 A 
ATOM     15  C   UNL     1     -47.293  -1.935 -24.333  0.00  0.00    +0.000 A 
ATOM     16  C   UNL     1     -47.358  -1.639 -22.971  0.00  0.00    +0.000 A 
BRANCH  11  18
ATOM     17  C   UNL     1     -47.016  -1.000 -20.168  0.00  0.00    +0.000 C 
ATOM     18  O   UNL     1     -47.418  -2.268 -20.666  0.00  0.00    +0.000 OA
ENDBRANCH  11  18
BRANCH  12  20
ATOM     19  C   UNL     1     -46.060  -5.581 -20.953  0.00  0.00    +0.000 C 
ATOM     20  O   UNL     1     -47.258  -5.052 -21.508  0.00  0.00    +0.000 OA
ENDBRANCH  12  20
ENDBRANCH   1  14
BRANCH   3  21
ATOM     21  C   UNL     1     -45.488  -4.638 -30.890  0.00  0.00    +0.000 A 
ATOM     22  C   UNL     1     -45.313  -3.652 -31.883  0.00  0.00    +0.000 A 
ATOM     23  C   UNL     1     -44.002  -3.360 -32.345  0.00  0.00    +0.000 A 
ATOM     24  C   UNL     1     -42.909  -4.055 -31.802  0.00  0.00    +0.000 A 
ATOM     25  C   UNL     1     -43.095  -5.023 -30.819  0.00  0.00    +0.000 A 
ATOM     26  C   UNL     1     -44.378  -5.312 -30.365  0.00  0.00    +0.000 A 
BRANCH  23  28
ATOM     27  C   UNL     1     -43.615  -1.010 -33.038  0.00  0.00    +0.000 C 
ATOM     28  O   UNL     1     -43.794  -2.390 -33.331  0.00  0.00    +0.000 OA
ENDBRANCH  23  28
BRANCH  22  30
ATOM     29  C   UNL     1     -47.112  -3.302 -33.596  0.00  0.00    +0.000 C 
ATOM     30  O   UNL     1     -46.463  -3.004 -32.368  0.00  0.00    +0.000 OA
ENDBRANCH  22  30
ENDBRANCH   3  21
TORSDOF 6
ENDMDL
MODEL 2
REMARK VINA RESULT:      -6.5     11.037     15.006
REMARK  Name = ZINC000006870764 PubChem-92318821
REMARK  6 active torsions:
REMARK  status: ('A' for Active; 'I' for Inactive)
REMARK    1  A    between atoms: C_2  and  O_22
REMARK    2  A    between atoms: C_3  and  O_27
REMARK    3  A    between atoms: C_5  and  C_8
REMARK    4  A    between atoms: C_10  and  C_13
REMARK    5  A    between atoms: C_14  and  O_26
REMARK    6  A    between atoms: C_15  and  O_25
REMARK                            x       y       z     vdW  Elec       q    Type
REMARK                         _______ _______ _______ _____ _____    ______ ____
ROOT
ATOM      1  C   UNL     1     -45.039 -14.631 -24.917  0.00  0.00    +0.000 C 
ATOM      2  C   UNL     1     -45.056 -17.184 -24.819  0.00  0.00    +0.000 C 
ATOM      3  C   UNL     1     -43.609 -18.497 -23.353  0.00  0.00    +0.000 C 
ATOM      4  C   UNL     1     -43.760 -19.705 -24.289  0.00  0.00    +0.000 C 
ATOM      5  C   UNL     1     -45.061 -19.650 -25.026  0.00  0.00    +0.000 C 
ATOM      6  O   UNL     1     -44.129 -14.527 -24.050  0.00  0.00    +0.000 OA
ATOM      7  O   UNL     1     -45.617 -20.712 -25.408  0.00  0.00    +0.000 OA
ATOM      8  N   UNL     1     -45.522 -15.923 -25.314  0.00  0.00    +0.000 NA
ATOM      9  N   UNL     1     -44.083 -17.246 -23.955  0.00  0.00    +0.000 NA
ATOM     10  N   UNL     1     -45.655 -18.386 -25.311  0.00  0.00    +0.000 NA
ENDROOT
BRANCH   1  14
ATOM     11  C   UNL     1     -46.711 -11.095 -26.691  0.00  0.00    +0.000 A 
ATOM     12  C   UNL     1     -46.765 -12.329 -27.385  0.00  0.00    +0.000 A 
ATOM     13  C   UNL     1     -46.212 -13.476 -26.789  0.00  0.00    +0.000 A 
ATOM     14  C   UNL     1     -45.612 -13.418 -25.525  0.00  0.00    +0.000 A 
ATOM     15  C   UNL     1     -45.564 -12.195 -24.850  0.00  0.00    +0.000 A 
ATOM     16  C   UNL     1     -46.109 -11.048 -25.429  0.00  0.00    +0.000 A 
BRANCH  11  18
ATOM     17  C   UNL     1     -46.488  -8.934 -27.935  0.00  0.00    +0.000 C 
ATOM     18  O   UNL     1     -47.231  -9.893 -27.195  0.00  0.00    +0.000 OA
ENDBRANCH  11  18
BRANCH  12  20
ATOM     19  C   UNL     1     -46.610 -12.472 -29.855  0.00  0.00    +0.000 C 
ATOM     20  O   UNL     1     -47.360 -12.413 -28.649  0.00  0.00    +0.000 OA
ENDBRANCH  12  20
ENDBRANCH   1  14
BRANCH   3  21
ATOM     21  C   UNL     1     -44.255 -18.730 -22.014  0.00  0.00    +0.000 A 
ATOM     22  C   UNL     1     -43.485 -19.229 -20.943  0.00  0.00    +0.000 A 
ATOM     23  C   UNL     1     -44.105 -19.434 -19.682  0.00  0.00    +0.000 A 
ATOM     24  C   UNL     1     -45.468 -19.134 -19.527  0.00  0.00    +0.000 A 
ATOM     25  C   UNL     1     -46.216 -18.637 -20.591  0.00  0.00    +0.000 A 
ATOM     26  C   UNL     1     -45.611 -18.436 -21.828  0.00  0.00    +0.000 A 
BRANCH  23  28
ATOM     27  C   UNL     1     -42.611 -19.102 -17.730  0.00  0.00    +0.000 C 
ATOM     28  O   UNL     1     -43.371 -19.932 -18.599  0.00  0.00    +0.000 OA
ENDBRANCH  23  28
BRANCH  22  30
ATOM     29  C   UNL     1     -41.566 -20.798 -21.327  0.00  0.00    +0.000 C 
ATOM     30  O   UNL     1     -42.127 -19.501 -21.186  0.00  0.00    +0.000 OA
ENDBRANCH  22  30
ENDBRANCH   3  21
TORSDOF 6
ENDMDL
MODEL 3
REMARK VINA RESULT:      -6.3      5.278     10.475
REMARK  Name = ZINC000006870764 PubChem-92318821
REMARK  6 active torsions:
REMARK  status: ('A' for Active; 'I' for Inactive)
REMARK    1  A    between atoms: C_2  and  O_22
REMARK    2  A    between atoms: C_3  and  O_27
REMARK    3  A    between atoms: C_5  and  C_8
REMARK    4  A    between atoms: C_10  and  C_13
REMARK    5  A    between atoms: C_14  and  O_26
REMARK    6  A    between atoms: C_15  and  O_25
REMARK                            x       y       z     vdW  Elec       q    Type
REMARK                         _______ _______ _______ _____ _____    ______ ____
ROOT
ATOM      1  C   UNL     1     -45.600  -6.755 -35.070  0.00  0.00    +0.000 C 
ATOM      2  C   UNL     1     -46.055  -5.738 -32.771  0.00  0.00    +0.000 C 
ATOM      3  C   UNL     1     -44.337  -4.693 -31.383  0.00  0.00    +0.000 C 
ATOM      4  C   UNL     1     -45.190  -4.956 -30.133  0.00  0.00    +0.000 C 
ATOM      5  C   UNL     1     -46.644  -5.008 -30.480  0.00  0.00    +0.000 C 
ATOM      6  O   UNL     1     -44.369  -6.482 -35.033  0.00  0.00    +0.000 OA
ATOM      7  O   UNL     1     -47.510  -4.692 -29.626  0.00  0.00    +0.000 OA
ATOM      8  N   UNL     1     -46.459  -6.398 -33.976  0.00  0.00    +0.000 NA
ATOM      9  N   UNL     1     -44.806  -5.434 -32.560  0.00  0.00    +0.000 NA
ATOM     10  N   UNL     1     -47.042  -5.441 -31.779  0.00  0.00    +0.000 NA
ENDROOT
BRANCH   1  14
ATOM     11  C   UNL     1     -47.236  -8.764 -38.495  0.00  0.00    +0.000 A 
ATOM     12  C   UNL     1     -47.171  -9.432 -37.247  0.00  0.00    +0.000 A 
ATOM     13  C   UNL     1     -46.632  -8.758 -36.137  0.00  0.00    +0.000 A 
ATOM     14  C   UNL     1     -46.161  -7.444 -36.245  0.00  0.00    +0.000 A 
ATOM     15  C   UNL     1     -46.231  -6.796 -37.482  0.00  0.00    +0.000 A 
ATOM     16  C   UNL     1     -46.763  -7.451 -38.593  0.00  0.00    +0.000 A 
BRANCH  11  18
ATOM     17  C   UNL     1     -47.359  -8.998 -40.984  0.00  0.00    +0.000 C 
ATOM     18  O   UNL     1     -47.755  -9.343 -39.664  0.00  0.00    +0.000 OA
ENDBRANCH  11  18
BRANCH  12  20
ATOM     19  C   UNL     1     -46.770 -11.856 -36.916  0.00  0.00    +0.000 C 
ATOM     20  O   UNL     1     -47.635 -10.744 -37.113  0.00  0.00    +0.000 OA
ENDBRANCH  12  20
ENDBRANCH   1  14
BRANCH   3  21
ATOM     21  C   UNL     1     -44.209  -3.225 -31.687  0.00  0.00    +0.000 A 
ATOM     22  C   UNL     1     -43.019  -2.730 -32.259  0.00  0.00    +0.000 A 
ATOM     23  C   UNL     1     -42.915  -1.344 -32.550  0.00  0.00    +0.000 A 
ATOM     24  C   UNL     1     -43.998  -0.497 -32.266  0.00  0.00    +0.000 A 
ATOM     25  C   UNL     1     -45.169  -0.999 -31.705  0.00  0.00    +0.000 A 
ATOM     26  C   UNL     1     -45.274  -2.356 -31.418  0.00  0.00    +0.000 A 
BRANCH  23  28
ATOM     27  C   UNL     1     -40.773  -0.108 -32.364  0.00  0.00    +0.000 C 
ATOM     28  O   UNL     1     -41.747  -0.820 -33.116  0.00  0.00    +0.000 OA
ENDBRANCH  23  28
BRANCH  22  30
ATOM     29  C   UNL     1     -41.595  -4.103 -33.802  0.00  0.00    +0.000 C 
ATOM     30  O   UNL     1     -41.986  -3.650 -32.514  0.00  0.00    +0.000 OA
ENDBRANCH  22  30
ENDBRANCH   3  21
TORSDOF 6
ENDMDL
