MODEL 1
REMARK VINA RESULT:      -7.5      0.000      0.000
REMARK  Name = ZINC000096181260 ZINC96181260 PubChem-97457132
REMARK  4 active torsions:
REMARK  status: ('A' for Active; 'I' for Inactive)
REMARK    1  A    between atoms: C_5  and  C_8
REMARK    2  A    between atoms: C_9  and  C_13
REMARK    3  A    between atoms: C_14  and  C_15
REMARK    4  A    between atoms: C_14  and  N_24
REMARK                            x       y       z     vdW  Elec       q    Type
REMARK                         _______ _______ _______ _____ _____    ______ ____
ROOT
ATOM      1  C   UNL     1     -47.027  -5.959 -26.206  0.00  0.00    +0.000 C 
ATOM      2  C   UNL     1     -45.966  -5.722 -27.298  0.00  0.00    +0.000 C 
ATOM      3  C   UNL     1     -44.983  -6.900 -27.258  0.00  0.00    +0.000 C 
ATOM      4  C   UNL     1     -45.479  -7.715 -26.132  0.00  0.00    +0.000 C 
ATOM      5  C   UNL     1     -47.462  -7.880 -24.563  0.00  0.00    +0.000 C 
ATOM      6  O   UNL     1     -44.949  -8.797 -25.766  0.00  0.00    +0.000 OA
ATOM      7  N   UNL     1     -46.624  -7.169 -25.515  0.00  0.00    +0.000 N 
ENDROOT
BRANCH   1  12
ATOM      8  C   UNL     1     -47.277  -1.413 -22.638  0.00  0.00    +0.000 C 
ATOM      9  C   UNL     1     -47.213  -2.586 -23.548  0.00  0.00    +0.000 A 
ATOM     10  C   UNL     1     -47.358  -2.409 -24.927  0.00  0.00    +0.000 A 
ATOM     11  C   UNL     1     -47.299  -3.512 -25.784  0.00  0.00    +0.000 A 
ATOM     12  C   UNL     1     -47.095  -4.795 -25.266  0.00  0.00    +0.000 A 
ATOM     13  C   UNL     1     -46.946  -4.968 -23.881  0.00  0.00    +0.000 A 
ATOM     14  C   UNL     1     -47.006  -3.865 -23.025  0.00  0.00    +0.000 A 
ENDBRANCH   1  12
BRANCH   2  15
ATOM     15  C   UNL     1     -46.609  -5.618 -28.641  0.00  0.00    +0.000 C 
ATOM     16  O   UNL     1     -47.068  -6.657 -29.187  0.00  0.00    +0.000 OA
ATOM     17  N   UNL     1     -46.699  -4.354 -29.300  0.00  0.00    +0.000 NA
BRANCH  17  18
ATOM     18  C   UNL     1     -47.306  -4.209 -30.613  0.00  0.00    +0.000 C 
BRANCH  18  19
ATOM     19  C   UNL     1     -46.444  -3.348 -31.471  0.00  0.00    +0.000 A 
ATOM     20  C   UNL     1     -45.494  -2.513 -30.872  0.00  0.00    +0.000 A 
ATOM     21  C   UNL     1     -44.661  -1.717 -31.663  0.00  0.00    +0.000 A 
ATOM     22  C   UNL     1     -44.772  -1.756 -33.056  0.00  0.00    +0.000 A 
ATOM     23  C   UNL     1     -45.715  -2.593 -33.658  0.00  0.00    +0.000 A 
ATOM     24  C   UNL     1     -46.550  -3.392 -32.870  0.00  0.00    +0.000 A 
ATOM     25  F   UNL     1     -47.456  -4.205 -33.469  0.00  0.00    +0.000 F 
ENDBRANCH  18  19
ENDBRANCH  17  18
ENDBRANCH   2  15
TORSDOF 4
ENDMDL
MODEL 2
REMARK VINA RESULT:      -7.2      2.466      3.470
REMARK  Name = ZINC000096181260 ZINC96181260 PubChem-97457132
REMARK  4 active torsions:
REMARK  status: ('A' for Active; 'I' for Inactive)
REMARK    1  A    between atoms: C_5  and  C_8
REMARK    2  A    between atoms: C_9  and  C_13
REMARK    3  A    between atoms: C_14  and  C_15
REMARK    4  A    between atoms: C_14  and  N_24
REMARK                            x       y       z     vdW  Elec       q    Type
REMARK                         _______ _______ _______ _____ _____    ______ ____
ROOT
ATOM      1  C   UNL     1     -46.428  -6.549 -29.687  0.00  0.00    +0.000 C 
ATOM      2  C   UNL     1     -45.010  -6.284 -30.225  0.00  0.00    +0.000 C 
ATOM      3  C   UNL     1     -44.317  -7.642 -30.404  0.00  0.00    +0.000 C 
ATOM      4  C   UNL     1     -45.326  -8.602 -29.917  0.00  0.00    +0.000 C 
ATOM      5  C   UNL     1     -47.755  -8.689 -29.199  0.00  0.00    +0.000 C 
ATOM      6  O   UNL     1     -45.154  -9.850 -29.902  0.00  0.00    +0.000 OA
ATOM      7  N   UNL     1     -46.517  -7.982 -29.483  0.00  0.00    +0.000 N 
ENDROOT
BRANCH   1  12
ATOM      8  C   UNL     1     -47.342  -3.604 -24.792  0.00  0.00    +0.000 C 
ATOM      9  C   UNL     1     -47.104  -4.368 -26.044  0.00  0.00    +0.000 A 
ATOM     10  C   UNL     1     -47.552  -3.859 -27.267  0.00  0.00    +0.000 A 
ATOM     11  C   UNL     1     -47.330  -4.576 -28.446  0.00  0.00    +0.000 A 
ATOM     12  C   UNL     1     -46.661  -5.804 -28.408  0.00  0.00    +0.000 A 
ATOM     13  C   UNL     1     -46.210  -6.310 -27.179  0.00  0.00    +0.000 A 
ATOM     14  C   UNL     1     -46.434  -5.592 -26.000  0.00  0.00    +0.000 A 
ENDBRANCH   1  12
BRANCH   2  15
ATOM     15  C   UNL     1     -45.071  -5.549 -31.523  0.00  0.00    +0.000 C 
ATOM     16  O   UNL     1     -46.192  -5.212 -31.990  0.00  0.00    +0.000 OA
ATOM     17  N   UNL     1     -43.869  -5.238 -32.231  0.00  0.00    +0.000 NA
BRANCH  17  18
ATOM     18  C   UNL     1     -43.883  -4.535 -33.504  0.00  0.00    +0.000 C 
BRANCH  18  19
ATOM     19  C   UNL     1     -43.462  -3.120 -33.298  0.00  0.00    +0.000 A 
ATOM     20  C   UNL     1     -42.105  -2.823 -33.134  0.00  0.00    +0.000 A 
ATOM     21  C   UNL     1     -41.692  -1.498 -32.964  0.00  0.00    +0.000 A 
ATOM     22  C   UNL     1     -42.634  -0.466 -32.963  0.00  0.00    +0.000 A 
ATOM     23  C   UNL     1     -43.990  -0.758 -33.134  0.00  0.00    +0.000 A 
ATOM     24  C   UNL     1     -44.408  -2.082 -33.304  0.00  0.00    +0.000 A 
ATOM     25  F   UNL     1     -45.726  -2.350 -33.476  0.00  0.00    +0.000 F 
ENDBRANCH  18  19
ENDBRANCH  17  18
ENDBRANCH   2  15
TORSDOF 4
ENDMDL
MODEL 3
REMARK VINA RESULT:      -7.2     10.238     14.342
REMARK  Name = ZINC000096181260 ZINC96181260 PubChem-97457132
REMARK  4 active torsions:
REMARK  status: ('A' for Active; 'I' for Inactive)
REMARK    1  A    between atoms: C_5  and  C_8
REMARK    2  A    between atoms: C_9  and  C_13
REMARK    3  A    between atoms: C_14  and  C_15
REMARK    4  A    between atoms: C_14  and  N_24
REMARK                            x       y       z     vdW  Elec       q    Type
REMARK                         _______ _______ _______ _____ _____    ______ ____
ROOT
ATOM      1  C   UNL     1     -44.049 -16.518 -25.663  0.00  0.00    +0.000 C 
ATOM      2  C   UNL     1     -44.644 -17.878 -26.076  0.00  0.00    +0.000 C 
ATOM      3  C   UNL     1     -43.500 -18.741 -26.624  0.00  0.00    +0.000 C 
ATOM      4  C   UNL     1     -42.334 -17.840 -26.555  0.00  0.00    +0.000 C 
ATOM      5  C   UNL     1     -41.661 -15.581 -25.622  0.00  0.00    +0.000 C 
ATOM      6  O   UNL     1     -41.172 -18.172 -26.908  0.00  0.00    +0.000 OA
ATOM      7  N   UNL     1     -42.648 -16.566 -26.035  0.00  0.00    +0.000 N 
ENDROOT
BRANCH   1  12
ATOM      8  C   UNL     1     -46.829 -12.169 -28.274  0.00  0.00    +0.000 C 
ATOM      9  C   UNL     1     -46.110 -13.287 -27.611  0.00  0.00    +0.000 A 
ATOM     10  C   UNL     1     -46.269 -13.503 -26.238  0.00  0.00    +0.000 A 
ATOM     11  C   UNL     1     -45.593 -14.554 -25.613  0.00  0.00    +0.000 A 
ATOM     12  C   UNL     1     -44.756 -15.393 -26.355  0.00  0.00    +0.000 A 
ATOM     13  C   UNL     1     -44.602 -15.176 -27.733  0.00  0.00    +0.000 A 
ATOM     14  C   UNL     1     -45.278 -14.124 -28.358  0.00  0.00    +0.000 A 
ENDBRANCH   1  12
BRANCH   2  15
ATOM     15  C   UNL     1     -45.294 -18.542 -24.908  0.00  0.00    +0.000 C 
ATOM     16  O   UNL     1     -46.292 -19.287 -25.098  0.00  0.00    +0.000 OA
ATOM     17  N   UNL     1     -44.789 -18.330 -23.588  0.00  0.00    +0.000 NA
BRANCH  17  18
ATOM     18  C   UNL     1     -45.398 -18.947 -22.421  0.00  0.00    +0.000 C 
BRANCH  18  19
ATOM     19  C   UNL     1     -45.681 -17.905 -21.394  0.00  0.00    +0.000 A 
ATOM     20  C   UNL     1     -45.445 -16.559 -21.697  0.00  0.00    +0.000 A 
ATOM     21  C   UNL     1     -45.728 -15.567 -20.755  0.00  0.00    +0.000 A 
ATOM     22  C   UNL     1     -46.253 -15.916 -19.507  0.00  0.00    +0.000 A 
ATOM     23  C   UNL     1     -46.497 -17.258 -19.203  0.00  0.00    +0.000 A 
ATOM     24  C   UNL     1     -46.215 -18.254 -20.144  0.00  0.00    +0.000 A 
ATOM     25  F   UNL     1     -46.463 -19.552 -19.837  0.00  0.00    +0.000 F 
ENDBRANCH  18  19
ENDBRANCH  17  18
ENDBRANCH   2  15
TORSDOF 4
ENDMDL
