MODEL 1
REMARK VINA RESULT:      -5.5      0.000      0.000
REMARK  Name = ZINC000585168577 PubChem-110087557
REMARK  8 active torsions:
REMARK  status: ('A' for Active; 'I' for Inactive)
REMARK    1  A    between atoms: C_2  and  N_24
REMARK    2  A    between atoms: C_3  and  C_17
REMARK    3  A    between atoms: C_4  and  C_7
REMARK    4  A    between atoms: C_8  and  C_9
REMARK    5  A    between atoms: C_8  and  N_25
REMARK    6  A    between atoms: C_14  and  C_15
REMARK    7  A    between atoms: C_15  and  O_28
REMARK    8  A    between atoms: C_20  and  O_29
REMARK                            x       y       z     vdW  Elec       q    Type
REMARK                         _______ _______ _______ _____ _____    ______ ____
ROOT
ATOM      1  C   UNL     1     -45.908 -15.323 -22.856  0.00  0.00    +0.000 C 
ATOM      2  C   UNL     1     -45.599 -14.306 -21.744  0.00  0.00    +0.000 C 
ATOM      3  C   UNL     1     -45.453 -12.928 -22.396  0.00  0.00    +0.000 C 
ATOM      4  C   UNL     1     -45.543 -13.234 -23.837  0.00  0.00    +0.000 C 
ATOM      5  N   UNL     1     -45.747 -14.607 -24.109  0.00  0.00    +0.000 N 
ATOM      6  O   UNL     1     -45.469 -12.358 -24.739  0.00  0.00    +0.000 OA
ENDROOT
BRANCH   1   7
ATOM      7  C   UNL     1     -44.984 -16.500 -22.787  0.00  0.00    +0.000 A 
ATOM      8  C   UNL     1     -45.505 -17.787 -22.952  0.00  0.00    +0.000 A 
ATOM      9  C   UNL     1     -44.662 -18.900 -22.893  0.00  0.00    +0.000 A 
ATOM     10  C   UNL     1     -43.291 -18.738 -22.668  0.00  0.00    +0.000 A 
ATOM     11  C   UNL     1     -42.768 -17.445 -22.503  0.00  0.00    +0.000 A 
ATOM     12  C   UNL     1     -43.610 -16.332 -22.561  0.00  0.00    +0.000 A 
BRANCH  10  14
ATOM     13  C   UNL     1     -42.590 -20.944 -23.540  0.00  0.00    +0.000 C 
ATOM     14  O   UNL     1     -42.476 -19.871 -22.614  0.00  0.00    +0.000 OA
ENDBRANCH  10  14
ENDBRANCH   1   7
BRANCH   2  15
ATOM     15  C   UNL     1     -46.650 -14.308 -20.673  0.00  0.00    +0.000 C 
ATOM     16  N   UNL     1     -46.449 -14.924 -19.396  0.00  0.00    +0.000 NA
ATOM     17  O   UNL     1     -47.756 -13.758 -20.917  0.00  0.00    +0.000 OA
BRANCH  16  18
ATOM     18  C   UNL     1     -45.195 -15.533 -18.984  0.00  0.00    +0.000 C 
BRANCH  18  19
ATOM     19  C   UNL     1     -45.280 -17.016 -19.119  0.00  0.00    +0.000 A 
ATOM     20  C   UNL     1     -46.527 -17.603 -19.357  0.00  0.00    +0.000 A 
ATOM     21  C   UNL     1     -46.639 -18.989 -19.497  0.00  0.00    +0.000 A 
ATOM     22  C   UNL     1     -45.502 -19.795 -19.402  0.00  0.00    +0.000 A 
ATOM     23  C   UNL     1     -44.252 -19.215 -19.170  0.00  0.00    +0.000 A 
ATOM     24  C   UNL     1     -44.131 -17.827 -19.037  0.00  0.00    +0.000 A 
BRANCH  24  25
ATOM     25  C   UNL     1     -42.780 -17.244 -18.776  0.00  0.00    +0.000 C 
BRANCH  25  27
ATOM     26  C   UNL     1     -41.387 -18.120 -17.310  0.00  0.00    +0.000 C 
ATOM     27  O   UNL     1     -42.501 -17.289 -17.410  0.00  0.00    +0.000 OA
ENDBRANCH  25  27
ENDBRANCH  24  25
ENDBRANCH  18  19
ENDBRANCH  16  18
ENDBRANCH   2  15
BRANCH   5  29
ATOM     28  C   UNL     1     -45.138 -15.302 -26.356  0.00  0.00    +0.000 C 
ATOM     29  C   UNL     1     -46.273 -15.101 -25.373  0.00  0.00    +0.000 C 
ENDBRANCH   5  29
TORSDOF 8
ENDMDL
MODEL 2
REMARK VINA RESULT:      -5.2      2.155      4.955
REMARK  Name = ZINC000585168577 PubChem-110087557
REMARK  8 active torsions:
REMARK  status: ('A' for Active; 'I' for Inactive)
REMARK    1  A    between atoms: C_2  and  N_24
REMARK    2  A    between atoms: C_3  and  C_17
REMARK    3  A    between atoms: C_4  and  C_7
REMARK    4  A    between atoms: C_8  and  C_9
REMARK    5  A    between atoms: C_8  and  N_25
REMARK    6  A    between atoms: C_14  and  C_15
REMARK    7  A    between atoms: C_15  and  O_28
REMARK    8  A    between atoms: C_20  and  O_29
REMARK                            x       y       z     vdW  Elec       q    Type
REMARK                         _______ _______ _______ _____ _____    ______ ____
ROOT
ATOM      1  C   UNL     1     -45.682 -15.608 -21.278  0.00  0.00    +0.000 C 
ATOM      2  C   UNL     1     -44.741 -16.578 -20.543  0.00  0.00    +0.000 C 
ATOM      3  C   UNL     1     -44.162 -15.843 -19.331  0.00  0.00    +0.000 C 
ATOM      4  C   UNL     1     -44.677 -14.470 -19.501  0.00  0.00    +0.000 C 
ATOM      5  N   UNL     1     -45.501 -14.316 -20.641  0.00  0.00    +0.000 N 
ATOM      6  O   UNL     1     -44.430 -13.531 -18.700  0.00  0.00    +0.000 OA
ENDROOT
BRANCH   1   7
ATOM      7  C   UNL     1     -45.358 -15.539 -22.738  0.00  0.00    +0.000 A 
ATOM      8  C   UNL     1     -44.035 -15.723 -23.152  0.00  0.00    +0.000 A 
ATOM      9  C   UNL     1     -43.708 -15.665 -24.509  0.00  0.00    +0.000 A 
ATOM     10  C   UNL     1     -44.699 -15.422 -25.466  0.00  0.00    +0.000 A 
ATOM     11  C   UNL     1     -46.028 -15.238 -25.050  0.00  0.00    +0.000 A 
ATOM     12  C   UNL     1     -46.356 -15.296 -23.694  0.00  0.00    +0.000 A 
BRANCH  10  14
ATOM     13  C   UNL     1     -43.157 -15.977 -27.319  0.00  0.00    +0.000 C 
ATOM     14  O   UNL     1     -44.339 -15.369 -26.815  0.00  0.00    +0.000 OA
ENDBRANCH  10  14
ENDBRANCH   1   7
BRANCH   2  15
ATOM     15  C   UNL     1     -45.439 -17.846 -20.146  0.00  0.00    +0.000 C 
ATOM     16  N   UNL     1     -45.035 -19.132 -20.628  0.00  0.00    +0.000 NA
ATOM     17  O   UNL     1     -46.427 -17.769 -19.371  0.00  0.00    +0.000 OA
BRANCH  16  18
ATOM     18  C   UNL     1     -43.874 -19.346 -21.478  0.00  0.00    +0.000 C 
BRANCH  18  19
ATOM     19  C   UNL     1     -44.294 -19.411 -22.908  0.00  0.00    +0.000 A 
ATOM     20  C   UNL     1     -45.545 -18.899 -23.269  0.00  0.00    +0.000 A 
ATOM     21  C   UNL     1     -45.964 -18.937 -24.602  0.00  0.00    +0.000 A 
ATOM     22  C   UNL     1     -45.131 -19.485 -25.581  0.00  0.00    +0.000 A 
ATOM     23  C   UNL     1     -43.878 -19.993 -25.227  0.00  0.00    +0.000 A 
ATOM     24  C   UNL     1     -43.448 -19.951 -23.896  0.00  0.00    +0.000 A 
BRANCH  24  25
ATOM     25  C   UNL     1     -42.108 -20.516 -23.555  0.00  0.00    +0.000 C 
BRANCH  25  27
ATOM     26  C   UNL     1     -41.403 -22.206 -22.327  0.00  0.00    +0.000 C 
ATOM     27  O   UNL     1     -42.196 -21.903 -23.433  0.00  0.00    +0.000 OA
ENDBRANCH  25  27
ENDBRANCH  24  25
ENDBRANCH  18  19
ENDBRANCH  16  18
ENDBRANCH   2  15
BRANCH   5  29
ATOM     28  C   UNL     1     -47.733 -13.540 -20.077  0.00  0.00    +0.000 C 
ATOM     29  C   UNL     1     -46.442 -13.218 -20.803  0.00  0.00    +0.000 C 
ENDBRANCH   5  29
TORSDOF 8
ENDMDL
MODEL 3
REMARK VINA RESULT:      -5.2      1.995      3.790
REMARK  Name = ZINC000585168577 PubChem-110087557
REMARK  8 active torsions:
REMARK  status: ('A' for Active; 'I' for Inactive)
REMARK    1  A    between atoms: C_2  and  N_24
REMARK    2  A    between atoms: C_3  and  C_17
REMARK    3  A    between atoms: C_4  and  C_7
REMARK    4  A    between atoms: C_8  and  C_9
REMARK    5  A    between atoms: C_8  and  N_25
REMARK    6  A    between atoms: C_14  and  C_15
REMARK    7  A    between atoms: C_15  and  O_28
REMARK    8  A    between atoms: C_20  and  O_29
REMARK                            x       y       z     vdW  Elec       q    Type
REMARK                         _______ _______ _______ _____ _____    ______ ____
ROOT
ATOM      1  C   UNL     1     -45.317 -17.455 -23.525  0.00  0.00    +0.000 C 
ATOM      2  C   UNL     1     -44.907 -15.999 -23.808  0.00  0.00    +0.000 C 
ATOM      3  C   UNL     1     -44.159 -15.973 -25.145  0.00  0.00    +0.000 C 
ATOM      4  C   UNL     1     -44.055 -17.404 -25.491  0.00  0.00    +0.000 C 
ATOM      5  N   UNL     1     -44.664 -18.259 -24.543  0.00  0.00    +0.000 N 
ATOM      6  O   UNL     1     -43.498 -17.826 -26.538  0.00  0.00    +0.000 OA
ENDROOT
BRANCH   1   7
ATOM      7  C   UNL     1     -44.896 -17.879 -22.152  0.00  0.00    +0.000 A 
ATOM      8  C   UNL     1     -45.871 -18.282 -21.234  0.00  0.00    +0.000 A 
ATOM      9  C   UNL     1     -45.502 -18.685 -19.948  0.00  0.00    +0.000 A 
ATOM     10  C   UNL     1     -44.156 -18.687 -19.565  0.00  0.00    +0.000 A 
ATOM     11  C   UNL     1     -43.177 -18.283 -20.488  0.00  0.00    +0.000 A 
ATOM     12  C   UNL     1     -43.545 -17.880 -21.774  0.00  0.00    +0.000 A 
BRANCH  10  14
ATOM     13  C   UNL     1     -42.522 -18.918 -17.723  0.00  0.00    +0.000 C 
ATOM     14  O   UNL     1     -43.821 -19.094 -18.272  0.00  0.00    +0.000 OA
ENDBRANCH  10  14
ENDBRANCH   1   7
BRANCH   2  15
ATOM     15  C   UNL     1     -46.088 -15.073 -23.811  0.00  0.00    +0.000 C 
ATOM     16  N   UNL     1     -46.255 -14.034 -22.841  0.00  0.00    +0.000 NA
ATOM     17  O   UNL     1     -46.970 -15.230 -24.695  0.00  0.00    +0.000 OA
BRANCH  16  18
ATOM     18  C   UNL     1     -45.273 -13.722 -21.815  0.00  0.00    +0.000 C 
BRANCH  18  19
ATOM     19  C   UNL     1     -45.675 -14.342 -20.519  0.00  0.00    +0.000 A 
ATOM     20  C   UNL     1     -47.037 -14.507 -20.243  0.00  0.00    +0.000 A 
ATOM     21  C   UNL     1     -47.446 -15.091 -19.041  0.00  0.00    +0.000 A 
ATOM     22  C   UNL     1     -46.494 -15.516 -18.111  0.00  0.00    +0.000 A 
ATOM     23  C   UNL     1     -45.133 -15.361 -18.384  0.00  0.00    +0.000 A 
ATOM     24  C   UNL     1     -44.715 -14.783 -19.588  0.00  0.00    +0.000 A 
BRANCH  24  25
ATOM     25  C   UNL     1     -43.251 -14.620 -19.838  0.00  0.00    +0.000 C 
BRANCH  25  27
ATOM     26  C   UNL     1     -41.225 -14.822 -18.994  0.00  0.00    +0.000 C 
ATOM     27  O   UNL     1     -42.525 -15.307 -18.865  0.00  0.00    +0.000 OA
ENDBRANCH  25  27
ENDBRANCH  24  25
ENDBRANCH  18  19
ENDBRANCH  16  18
ENDBRANCH   2  15
BRANCH   5  29
ATOM     28  C   UNL     1     -43.987 -20.585 -24.360  0.00  0.00    +0.000 C 
ATOM     29  C   UNL     1     -45.060 -19.627 -24.839  0.00  0.00    +0.000 C 
ENDBRANCH   5  29
TORSDOF 8
ENDMDL
