MODEL 1
REMARK VINA RESULT:      -6.0      0.000      0.000
REMARK  Name = ZINC000096181878 ZINC96181878 PubChem-97457708
REMARK  5 active torsions:
REMARK  status: ('A' for Active; 'I' for Inactive)
REMARK    1  A    between atoms: C_2  and  C_3
REMARK    2  A    between atoms: C_3  and  C_4
REMARK    3  A    between atoms: C_4  and  N_18
REMARK    4  A    between atoms: C_5  and  C_6
REMARK    5  A    between atoms: C_10  and  C_11
REMARK                            x       y       z     vdW  Elec       q    Type
REMARK                         _______ _______ _______ _____ _____    ______ ____
ROOT
ATOM      1  C   UNL     1     -45.871 -18.058 -20.380  0.00  0.00    +0.000 C 
ATOM      2  C   UNL     1     -46.355 -19.358 -19.734  0.00  0.00    +0.000 C 
ATOM      3  C   UNL     1     -45.381 -19.863 -18.676  0.00  0.00    +0.000 C 
ATOM      4  C   UNL     1     -43.982 -19.906 -19.202  0.00  0.00    +0.000 C 
ATOM      5  C   UNL     1     -44.485 -18.211 -21.027  0.00  0.00    +0.000 C 
ATOM      6  C   UNL     1     -42.116 -18.800 -20.452  0.00  0.00    +0.000 C 
ATOM      7  N   UNL     1     -43.539 -18.957 -20.188  0.00  0.00    +0.000 N 
ATOM      8  O   UNL     1     -43.179 -20.756 -18.732  0.00  0.00    +0.000 OA
ENDROOT
BRANCH   5   9
ATOM      9  C   UNL     1     -44.579 -18.809 -22.399  0.00  0.00    +0.000 A 
ATOM     10  C   UNL     1     -43.660 -19.774 -22.838  0.00  0.00    +0.000 A 
ATOM     11  C   UNL     1     -43.764 -20.308 -24.126  0.00  0.00    +0.000 A 
ATOM     12  C   UNL     1     -44.784 -19.880 -24.980  0.00  0.00    +0.000 A 
ATOM     13  C   UNL     1     -45.699 -18.917 -24.547  0.00  0.00    +0.000 A 
ATOM     14  C   UNL     1     -45.596 -18.382 -23.261  0.00  0.00    +0.000 A 
ATOM     15  F   UNL     1     -44.885 -20.399 -26.227  0.00  0.00    +0.000 F 
ENDBRANCH   5   9
BRANCH   1  16
ATOM     16  C   UNL     1     -45.929 -16.896 -19.437  0.00  0.00    +0.000 C 
ATOM     17  N   UNL     1     -47.154 -16.551 -18.786  0.00  0.00    +0.000 NA
ATOM     18  O   UNL     1     -44.889 -16.213 -19.240  0.00  0.00    +0.000 OA
BRANCH  17  19
ATOM     19  C   UNL     1     -47.252 -15.426 -17.873  0.00  0.00    +0.000 C 
BRANCH  19  20
ATOM     20  C   UNL     1     -47.634 -14.180 -18.650  0.00  0.00    +0.000 C 
BRANCH  20  22
ATOM     21  C   UNL     1     -45.734 -13.424 -17.223  0.00  0.00    +0.000 C 
ATOM     22  C   UNL     1     -46.635 -13.066 -18.390  0.00  0.00    +0.000 C 
ENDBRANCH  20  22
ENDBRANCH  19  20
ENDBRANCH  17  19
ENDBRANCH   1  16
TORSDOF 5
ENDMDL
MODEL 2
REMARK VINA RESULT:      -5.6      4.106      5.499
REMARK  Name = ZINC000096181878 ZINC96181878 PubChem-97457708
REMARK  5 active torsions:
REMARK  status: ('A' for Active; 'I' for Inactive)
REMARK    1  A    between atoms: C_2  and  C_3
REMARK    2  A    between atoms: C_3  and  C_4
REMARK    3  A    between atoms: C_4  and  N_18
REMARK    4  A    between atoms: C_5  and  C_6
REMARK    5  A    between atoms: C_10  and  C_11
REMARK                            x       y       z     vdW  Elec       q    Type
REMARK                         _______ _______ _______ _____ _____    ______ ____
ROOT
ATOM      1  C   UNL     1     -45.450 -17.184 -24.139  0.00  0.00    +0.000 C 
ATOM      2  C   UNL     1     -46.134 -18.343 -24.866  0.00  0.00    +0.000 C 
ATOM      3  C   UNL     1     -45.148 -19.447 -25.227  0.00  0.00    +0.000 C 
ATOM      4  C   UNL     1     -43.944 -18.895 -25.920  0.00  0.00    +0.000 C 
ATOM      5  C   UNL     1     -44.312 -16.568 -24.967  0.00  0.00    +0.000 C 
ATOM      6  C   UNL     1     -42.128 -17.176 -26.040  0.00  0.00    +0.000 C 
ATOM      7  N   UNL     1     -43.460 -17.576 -25.611  0.00  0.00    +0.000 N 
ATOM      8  O   UNL     1     -43.326 -19.621 -26.744  0.00  0.00    +0.000 OA
ENDROOT
BRANCH   5   9
ATOM      9  C   UNL     1     -44.830 -15.579 -25.970  0.00  0.00    +0.000 A 
ATOM     10  C   UNL     1     -44.380 -15.584 -27.298  0.00  0.00    +0.000 A 
ATOM     11  C   UNL     1     -44.871 -14.645 -28.210  0.00  0.00    +0.000 A 
ATOM     12  C   UNL     1     -45.812 -13.698 -27.798  0.00  0.00    +0.000 A 
ATOM     13  C   UNL     1     -46.261 -13.688 -26.474  0.00  0.00    +0.000 A 
ATOM     14  C   UNL     1     -45.770 -14.626 -25.562  0.00  0.00    +0.000 A 
ATOM     15  F   UNL     1     -46.289 -12.788 -28.682  0.00  0.00    +0.000 F 
ENDBRANCH   5   9
BRANCH   1  16
ATOM     16  C   UNL     1     -45.005 -17.559 -22.759  0.00  0.00    +0.000 C 
ATOM     17  N   UNL     1     -45.764 -18.486 -21.979  0.00  0.00    +0.000 NA
ATOM     18  O   UNL     1     -43.964 -17.031 -22.285  0.00  0.00    +0.000 OA
BRANCH  17  19
ATOM     19  C   UNL     1     -45.370 -18.865 -20.634  0.00  0.00    +0.000 C 
BRANCH  19  20
ATOM     20  C   UNL     1     -46.323 -18.237 -19.634  0.00  0.00    +0.000 C 
BRANCH  20  22
ATOM     21  C   UNL     1     -46.349 -15.744 -19.690  0.00  0.00    +0.000 C 
ATOM     22  C   UNL     1     -45.721 -16.970 -19.052  0.00  0.00    +0.000 C 
ENDBRANCH  20  22
ENDBRANCH  19  20
ENDBRANCH  17  19
ENDBRANCH   1  16
TORSDOF 5
ENDMDL
MODEL 3
REMARK VINA RESULT:      -5.6     14.423     16.403
REMARK  Name = ZINC000096181878 ZINC96181878 PubChem-97457708
REMARK  5 active torsions:
REMARK  status: ('A' for Active; 'I' for Inactive)
REMARK    1  A    between atoms: C_2  and  C_3
REMARK    2  A    between atoms: C_3  and  C_4
REMARK    3  A    between atoms: C_4  and  N_18
REMARK    4  A    between atoms: C_5  and  C_6
REMARK    5  A    between atoms: C_10  and  C_11
REMARK                            x       y       z     vdW  Elec       q    Type
REMARK                         _______ _______ _______ _____ _____    ______ ____
ROOT
ATOM      1  C   UNL     1     -45.161  -5.261 -29.796  0.00  0.00    +0.000 C 
ATOM      2  C   UNL     1     -43.834  -5.961 -29.500  0.00  0.00    +0.000 C 
ATOM      3  C   UNL     1     -43.822  -7.396 -30.013  0.00  0.00    +0.000 C 
ATOM      4  C   UNL     1     -45.039  -8.142 -29.566  0.00  0.00    +0.000 C 
ATOM      5  C   UNL     1     -46.360  -6.005 -29.188  0.00  0.00    +0.000 C 
ATOM      6  C   UNL     1     -47.522  -8.226 -29.262  0.00  0.00    +0.000 C 
ATOM      7  N   UNL     1     -46.291  -7.459 -29.378  0.00  0.00    +0.000 N 
ATOM      8  O   UNL     1     -44.965  -9.389 -29.405  0.00  0.00    +0.000 OA
ENDROOT
BRANCH   5   9
ATOM      9  C   UNL     1     -46.548  -5.658 -27.740  0.00  0.00    +0.000 A 
ATOM     10  C   UNL     1     -46.156  -6.541 -26.722  0.00  0.00    +0.000 A 
ATOM     11  C   UNL     1     -46.352  -6.199 -25.381  0.00  0.00    +0.000 A 
ATOM     12  C   UNL     1     -46.941  -4.975 -25.051  0.00  0.00    +0.000 A 
ATOM     13  C   UNL     1     -47.336  -4.094 -26.063  0.00  0.00    +0.000 A 
ATOM     14  C   UNL     1     -47.141  -4.436 -27.403  0.00  0.00    +0.000 A 
ATOM     15  F   UNL     1     -47.130  -4.642 -23.752  0.00  0.00    +0.000 F 
ENDBRANCH   5   9
BRANCH   1  16
ATOM     16  C   UNL     1     -45.349  -4.987 -31.257  0.00  0.00    +0.000 C 
ATOM     17  N   UNL     1     -44.516  -4.040 -31.930  0.00  0.00    +0.000 NA
ATOM     18  O   UNL     1     -46.264  -5.588 -31.881  0.00  0.00    +0.000 OA
BRANCH  17  19
ATOM     19  C   UNL     1     -44.675  -3.742 -33.342  0.00  0.00    +0.000 C 
BRANCH  19  20
ATOM     20  C   UNL     1     -45.172  -2.318 -33.503  0.00  0.00    +0.000 C 
BRANCH  20  22
ATOM     21  C   UNL     1     -44.205  -0.404 -32.229  0.00  0.00    +0.000 C 
ATOM     22  C   UNL     1     -44.015  -1.338 -33.410  0.00  0.00    +0.000 C 
ENDBRANCH  20  22
ENDBRANCH  19  20
ENDBRANCH  17  19
ENDBRANCH   1  16
TORSDOF 5
ENDMDL
