MODEL 1
REMARK VINA RESULT:      -6.2      0.000      0.000
REMARK  Name = ZINC000004733041 ZINC04733041 PubChem-92230333
REMARK  6 active torsions:
REMARK  status: ('A' for Active; 'I' for Inactive)
REMARK    1  A    between atoms: C_2  and  O_26
REMARK    2  A    between atoms: C_5  and  N_29
REMARK    3  A    between atoms: C_8  and  C_20
REMARK    4  A    between atoms: C_9  and  C_13
REMARK    5  A    between atoms: C_14  and  C_15
REMARK    6  A    between atoms: C_14  and  N_30
REMARK                            x       y       z     vdW  Elec       q    Type
REMARK                         _______ _______ _______ _____ _____    ______ ____
ROOT
ATOM      1  C   UNL     1     -45.069  -4.281 -32.060  0.00  0.00    +0.000 C 
ATOM      2  C   UNL     1     -46.380  -3.795 -31.402  0.00  0.00    +0.000 C 
ATOM      3  C   UNL     1     -47.662  -4.230 -32.117  0.00  0.00    +0.000 C 
ATOM      4  C   UNL     1     -47.500  -4.080 -33.616  0.00  0.00    +0.000 C 
ATOM      5  C   UNL     1     -46.434  -5.026 -34.042  0.00  0.00    +0.000 C 
ATOM      6  O   UNL     1     -46.623  -5.748 -35.059  0.00  0.00    +0.000 OA
ATOM      7  N   UNL     1     -45.250  -5.165 -33.228  0.00  0.00    +0.000 N 
ENDROOT
BRANCH   1   8
ATOM      8  C   UNL     1     -44.169  -3.130 -32.390  0.00  0.00    +0.000 A 
ATOM      9  C   UNL     1     -44.688  -1.925 -32.885  0.00  0.00    +0.000 A 
ATOM     10  C   UNL     1     -43.830  -0.864 -33.185  0.00  0.00    +0.000 A 
ATOM     11  C   UNL     1     -42.451  -1.003 -32.993  0.00  0.00    +0.000 A 
ATOM     12  C   UNL     1     -41.932  -2.204 -32.502  0.00  0.00    +0.000 A 
ATOM     13  C   UNL     1     -42.790  -3.267 -32.201  0.00  0.00    +0.000 A 
ATOM     14  F   UNL     1     -41.619   0.027 -33.280  0.00  0.00    +0.000 F 
ENDBRANCH   1   8
BRANCH   7  18
ATOM     15  C   UNL     1     -42.215  -8.061 -33.996  0.00  0.00    +0.000 A 
ATOM     16  C   UNL     1     -43.051  -8.186 -32.876  0.00  0.00    +0.000 A 
ATOM     17  C   UNL     1     -44.048  -7.237 -32.634  0.00  0.00    +0.000 A 
ATOM     18  C   UNL     1     -44.229  -6.149 -33.503  0.00  0.00    +0.000 A 
ATOM     19  C   UNL     1     -43.382  -6.028 -34.617  0.00  0.00    +0.000 A 
ATOM     20  C   UNL     1     -42.387  -6.978 -34.863  0.00  0.00    +0.000 A 
BRANCH  15  22
ATOM     21  C   UNL     1     -40.563  -9.080 -35.530  0.00  0.00    +0.000 C 
ATOM     22  O   UNL     1     -41.205  -8.990 -34.265  0.00  0.00    +0.000 OA
ENDBRANCH  15  22
ENDBRANCH   7  18
BRANCH   2  23
ATOM     23  C   UNL     1     -46.417  -4.215 -29.972  0.00  0.00    +0.000 C 
ATOM     24  O   UNL     1     -46.985  -3.477 -29.123  0.00  0.00    +0.000 OA
ATOM     25  N   UNL     1     -45.787  -5.433 -29.570  0.00  0.00    +0.000 NA
BRANCH  25  26
ATOM     26  C   UNL     1     -45.744  -5.861 -28.182  0.00  0.00    +0.000 C 
BRANCH  26  27
ATOM     27  C   UNL     1     -44.397  -6.411 -27.874  0.00  0.00    +0.000 A 
ATOM     28  C   UNL     1     -43.321  -6.161 -28.730  0.00  0.00    +0.000 A 
ATOM     29  C   UNL     1     -42.056  -6.662 -28.417  0.00  0.00    +0.000 A 
ATOM     30  C   UNL     1     -41.885  -7.403 -27.245  0.00  0.00    +0.000 A 
ATOM     31  C   UNL     1     -44.185  -7.151 -26.706  0.00  0.00    +0.000 A 
ATOM     32  N   UNL     1     -42.944  -7.630 -26.420  0.00  0.00    +0.000 NA
ENDBRANCH  26  27
ENDBRANCH  25  26
ENDBRANCH   2  23
TORSDOF 6
ENDMDL
MODEL 2
REMARK VINA RESULT:      -6.2      3.893      8.716
REMARK  Name = ZINC000004733041 ZINC04733041 PubChem-92230333
REMARK  6 active torsions:
REMARK  status: ('A' for Active; 'I' for Inactive)
REMARK    1  A    between atoms: C_2  and  O_26
REMARK    2  A    between atoms: C_5  and  N_29
REMARK    3  A    between atoms: C_8  and  C_20
REMARK    4  A    between atoms: C_9  and  C_13
REMARK    5  A    between atoms: C_14  and  C_15
REMARK    6  A    between atoms: C_14  and  N_30
REMARK                            x       y       z     vdW  Elec       q    Type
REMARK                         _______ _______ _______ _____ _____    ______ ____
ROOT
ATOM      1  C   UNL     1     -46.024  -7.007 -26.857  0.00  0.00    +0.000 C 
ATOM      2  C   UNL     1     -46.446  -8.238 -27.692  0.00  0.00    +0.000 C 
ATOM      3  C   UNL     1     -47.445  -9.172 -27.005  0.00  0.00    +0.000 C 
ATOM      4  C   UNL     1     -47.059  -9.374 -25.553  0.00  0.00    +0.000 C 
ATOM      5  C   UNL     1     -47.177  -8.055 -24.877  0.00  0.00    +0.000 C 
ATOM      6  O   UNL     1     -47.756  -7.987 -23.759  0.00  0.00    +0.000 OA
ATOM      7  N   UNL     1     -46.713  -6.870 -25.559  0.00  0.00    +0.000 N 
ENDROOT
BRANCH   1   8
ATOM      8  C   UNL     1     -44.537  -6.953 -26.685  0.00  0.00    +0.000 A 
ATOM      9  C   UNL     1     -43.704  -6.523 -27.727  0.00  0.00    +0.000 A 
ATOM     10  C   UNL     1     -42.318  -6.480 -27.545  0.00  0.00    +0.000 A 
ATOM     11  C   UNL     1     -41.762  -6.868 -26.321  0.00  0.00    +0.000 A 
ATOM     12  C   UNL     1     -42.591  -7.300 -25.282  0.00  0.00    +0.000 A 
ATOM     13  C   UNL     1     -43.978  -7.343 -25.464  0.00  0.00    +0.000 A 
ATOM     14  F   UNL     1     -40.420  -6.823 -26.143  0.00  0.00    +0.000 F 
ENDBRANCH   1   8
BRANCH   7  18
ATOM     15  C   UNL     1     -47.244  -2.930 -24.016  0.00  0.00    +0.000 A 
ATOM     16  C   UNL     1     -47.387  -3.182 -25.389  0.00  0.00    +0.000 A 
ATOM     17  C   UNL     1     -47.218  -4.476 -25.887  0.00  0.00    +0.000 A 
ATOM     18  C   UNL     1     -46.905  -5.541 -25.026  0.00  0.00    +0.000 A 
ATOM     19  C   UNL     1     -46.757  -5.278 -23.655  0.00  0.00    +0.000 A 
ATOM     20  C   UNL     1     -46.929  -3.985 -23.154  0.00  0.00    +0.000 A 
BRANCH  15  22
ATOM     21  C   UNL     1     -47.379  -1.386 -22.088  0.00  0.00    +0.000 C 
ATOM     22  O   UNL     1     -47.402  -1.646 -23.485  0.00  0.00    +0.000 OA
ENDBRANCH  15  22
ENDBRANCH   7  18
BRANCH   2  23
ATOM     23  C   UNL     1     -46.974  -7.797 -29.014  0.00  0.00    +0.000 C 
ATOM     24  O   UNL     1     -47.631  -8.607 -29.721  0.00  0.00    +0.000 OA
ATOM     25  N   UNL     1     -46.709  -6.473 -29.483  0.00  0.00    +0.000 NA
BRANCH  25  26
ATOM     26  C   UNL     1     -47.151  -6.011 -30.787  0.00  0.00    +0.000 C 
BRANCH  26  27
ATOM     27  C   UNL     1     -46.232  -4.946 -31.274  0.00  0.00    +0.000 A 
ATOM     28  C   UNL     1     -46.714  -3.657 -31.516  0.00  0.00    +0.000 A 
ATOM     29  C   UNL     1     -45.838  -2.660 -31.949  0.00  0.00    +0.000 A 
ATOM     30  C   UNL     1     -44.486  -2.968 -32.127  0.00  0.00    +0.000 A 
ATOM     31  C   UNL     1     -44.872  -5.214 -31.456  0.00  0.00    +0.000 A 
ATOM     32  N   UNL     1     -44.035  -4.228 -31.878  0.00  0.00    +0.000 NA
ENDBRANCH  26  27
ENDBRANCH  25  26
ENDBRANCH   2  23
TORSDOF 6
ENDMDL
MODEL 3
REMARK VINA RESULT:      -6.2      4.219      7.290
REMARK  Name = ZINC000004733041 ZINC04733041 PubChem-92230333
REMARK  6 active torsions:
REMARK  status: ('A' for Active; 'I' for Inactive)
REMARK    1  A    between atoms: C_2  and  O_26
REMARK    2  A    between atoms: C_5  and  N_29
REMARK    3  A    between atoms: C_8  and  C_20
REMARK    4  A    between atoms: C_9  and  C_13
REMARK    5  A    between atoms: C_14  and  C_15
REMARK    6  A    between atoms: C_14  and  N_30
REMARK                            x       y       z     vdW  Elec       q    Type
REMARK                         _______ _______ _______ _____ _____    ______ ____
ROOT
ATOM      1  C   UNL     1     -45.344  -7.567 -27.993  0.00  0.00    +0.000 C 
ATOM      2  C   UNL     1     -44.995  -7.814 -26.507  0.00  0.00    +0.000 C 
ATOM      3  C   UNL     1     -43.648  -7.243 -26.057  0.00  0.00    +0.000 C 
ATOM      4  C   UNL     1     -42.589  -7.510 -27.108  0.00  0.00    +0.000 C 
ATOM      5  C   UNL     1     -42.982  -6.759 -28.331  0.00  0.00    +0.000 C 
ATOM      6  O   UNL     1     -42.111  -6.083 -28.943  0.00  0.00    +0.000 OA
ATOM      7  N   UNL     1     -44.369  -6.743 -28.732  0.00  0.00    +0.000 N 
ENDROOT
BRANCH   1   8
ATOM      8  C   UNL     1     -45.611  -8.856 -28.707  0.00  0.00    +0.000 A 
ATOM      9  C   UNL     1     -44.747  -9.951 -28.572  0.00  0.00    +0.000 A 
ATOM     10  C   UNL     1     -45.016 -11.145 -29.248  0.00  0.00    +0.000 A 
ATOM     11  C   UNL     1     -46.150 -11.247 -30.062  0.00  0.00    +0.000 A 
ATOM     12  C   UNL     1     -47.011 -10.155 -30.200  0.00  0.00    +0.000 A 
ATOM     13  C   UNL     1     -46.743  -8.961 -29.524  0.00  0.00    +0.000 A 
ATOM     14  F   UNL     1     -46.413 -12.405 -30.714  0.00  0.00    +0.000 F 
ENDBRANCH   1   8
BRANCH   7  18
ATOM     15  C   UNL     1     -45.838  -4.381 -31.964  0.00  0.00    +0.000 A 
ATOM     16  C   UNL     1     -46.279  -4.145 -30.654  0.00  0.00    +0.000 A 
ATOM     17  C   UNL     1     -45.789  -4.919 -29.598  0.00  0.00    +0.000 A 
ATOM     18  C   UNL     1     -44.850  -5.938 -29.831  0.00  0.00    +0.000 A 
ATOM     19  C   UNL     1     -44.421  -6.170 -31.148  0.00  0.00    +0.000 A 
ATOM     20  C   UNL     1     -44.907  -5.396 -32.204  0.00  0.00    +0.000 A 
BRANCH  15  22
ATOM     21  C   UNL     1     -45.630  -2.481 -33.536  0.00  0.00    +0.000 C 
ATOM     22  O   UNL     1     -46.311  -3.628 -33.044  0.00  0.00    +0.000 OA
ENDBRANCH  15  22
ENDBRANCH   7  18
BRANCH   2  23
ATOM     23  C   UNL     1     -46.091  -7.304 -25.636  0.00  0.00    +0.000 C 
ATOM     24  O   UNL     1     -47.125  -8.003 -25.467  0.00  0.00    +0.000 OA
ATOM     25  N   UNL     1     -45.975  -6.018 -25.023  0.00  0.00    +0.000 NA
BRANCH  25  26
ATOM     26  C   UNL     1     -47.037  -5.449 -24.211  0.00  0.00    +0.000 C 
BRANCH  26  27
ATOM     27  C   UNL     1     -47.306  -4.054 -24.653  0.00  0.00    +0.000 A 
ATOM     28  C   UNL     1     -47.305  -3.009 -23.725  0.00  0.00    +0.000 A 
ATOM     29  C   UNL     1     -47.534  -1.701 -24.156  0.00  0.00    +0.000 A 
ATOM     30  C   UNL     1     -47.756  -1.457 -25.513  0.00  0.00    +0.000 A 
ATOM     31  C   UNL     1     -47.525  -3.769 -26.004  0.00  0.00    +0.000 A 
ATOM     32  N   UNL     1     -47.747  -2.487 -26.403  0.00  0.00    +0.000 NA
ENDBRANCH  26  27
ENDBRANCH  25  26
ENDBRANCH   2  23
TORSDOF 6
ENDMDL
