MODEL 1
REMARK VINA RESULT:      -6.9      0.000      0.000
REMARK  Name = ZINC000002155366 PubChem-1804311
REMARK  7 active torsions:
REMARK  status: ('A' for Active; 'I' for Inactive)
REMARK    1  A    between atoms: C_2  and  C_3
REMARK    2  A    between atoms: C_3  and  C_4
REMARK    3  A    between atoms: C_4  and  CA_5
REMARK    4  A    between atoms: CA_5  and  C_6
REMARK    5  A    between atoms: CA_5  and  N_32
REMARK    6  A    between atoms: C_7  and  C_8
REMARK    7  A    between atoms: C_8  and  C_9
REMARK                            x       y       z     vdW  Elec       q    Type
REMARK                         _______ _______ _______ _____ _____    ______ ____
ROOT
ATOM      1  C   UNL     1     -46.445  -4.472 -32.002  0.00  0.00    +0.000 A 
ATOM      2  C   UNL     1     -46.505  -5.876 -32.009  0.00  0.00    +0.000 A 
ATOM      3  C   UNL     1     -46.502  -6.566 -30.786  0.00  0.00    +0.000 A 
ATOM      4  C   UNL     1     -46.438  -5.810 -29.576  0.00  0.00    +0.000 A 
ATOM      5  C   UNL     1     -46.437  -6.466 -28.326  0.00  0.00    +0.000 A 
ATOM      6  C   UNL     1     -46.499  -7.858 -28.319  0.00  0.00    +0.000 A 
ATOM      7  C   UNL     1     -46.551  -8.581 -29.486  0.00  0.00    +0.000 A 
ATOM      8  C   UNL     1     -46.560  -7.976 -30.737  0.00  0.00    +0.000 A 
ATOM      9  C   UNL     1     -46.599  -9.902 -29.118  0.00  0.00    +0.000 A 
ATOM     10  C   UNL     1     -46.599  -9.894 -27.735  0.00  0.00    +0.000 A 
ATOM     11  C   UNL     1     -46.636 -11.141 -26.909  0.00  0.00    +0.000 C 
ATOM     12  C   UNL     1     -47.153 -12.321 -27.746  0.00  0.00    +0.000 C 
ATOM     13  C   UNL     1     -46.465 -12.379 -29.119  0.00  0.00    +0.000 C 
ATOM     14  C   UNL     1     -46.777 -11.129 -29.955  0.00  0.00    +0.000 C 
ATOM     15  C   UNL     1     -46.380  -5.702 -27.046  0.00  0.00    +0.000 C 
ATOM     16  C   UNL     1     -46.383  -3.801 -30.768  0.00  0.00    +0.000 A 
ATOM     17  C   UNL     1     -46.569  -6.625 -33.306  0.00  0.00    +0.000 C 
ATOM     18  O   UNL     1     -46.525  -8.660 -27.274  0.00  0.00    +0.000 OA
ATOM     19  O   UNL     1     -46.381  -4.483 -29.627  0.00  0.00    +0.000 OA
ATOM     20  O   UNL     1     -46.329  -2.543 -30.729  0.00  0.00    +0.000 OA
ENDROOT
BRANCH   1  21
ATOM     21  C   UNL     1     -46.478  -3.690 -33.284  0.00  0.00    +0.000 C 
BRANCH  21  22
ATOM     22  C   UNL     1     -45.136  -3.113 -33.577  0.00  0.00    +0.000 C 
ATOM     23  O   UNL     1     -45.030  -1.888 -33.855  0.00  0.00    +0.000 OA
ATOM     24  N   UNL     1     -43.985  -3.959 -33.572  0.00  0.00    +0.000 NA
BRANCH  24  25
ATOM     25  CA  UNL     1     -42.658  -3.462 -33.902  0.00  0.00    +0.000 C 
BRANCH  25  26
ATOM     26  C   UNL     1     -41.872  -4.535 -34.577  0.00  0.00    +0.000 C 
ATOM     27  OXT UNL     1     -41.854  -4.623 -35.833  0.00  0.00    +0.000 OA
ATOM     28  O   UNL     1     -41.147  -5.439 -33.812  0.00  0.00    +0.000 OA
ENDBRANCH  25  26
BRANCH  25  29
ATOM     29  C   UNL     1     -41.942  -2.990 -32.644  0.00  0.00    +0.000 C 
BRANCH  29  30
ATOM     30  C   UNL     1     -41.076  -1.768 -32.924  0.00  0.00    +0.000 C 
BRANCH  30  32
ATOM     31  C   UNL     1     -40.626   0.287 -31.581  0.00  0.00    +0.000 C 
ATOM     32  C   UNL     1     -41.680  -0.503 -32.333  0.00  0.00    +0.000 C 
ENDBRANCH  30  32
ENDBRANCH  29  30
ENDBRANCH  25  29
ENDBRANCH  24  25
ENDBRANCH  21  22
ENDBRANCH   1  21
TORSDOF 7
ENDMDL
MODEL 2
REMARK VINA RESULT:      -6.9      9.640     16.127
REMARK  Name = ZINC000002155366 PubChem-1804311
REMARK  7 active torsions:
REMARK  status: ('A' for Active; 'I' for Inactive)
REMARK    1  A    between atoms: C_2  and  C_3
REMARK    2  A    between atoms: C_3  and  C_4
REMARK    3  A    between atoms: C_4  and  CA_5
REMARK    4  A    between atoms: CA_5  and  C_6
REMARK    5  A    between atoms: CA_5  and  N_32
REMARK    6  A    between atoms: C_7  and  C_8
REMARK    7  A    between atoms: C_8  and  C_9
REMARK                            x       y       z     vdW  Elec       q    Type
REMARK                         _______ _______ _______ _____ _____    ______ ____
ROOT
ATOM      1  C   UNL     1     -43.107 -19.495 -24.343  0.00  0.00    +0.000 A 
ATOM      2  C   UNL     1     -43.991 -18.419 -24.532  0.00  0.00    +0.000 A 
ATOM      3  C   UNL     1     -43.827 -17.587 -25.651  0.00  0.00    +0.000 A 
ATOM      4  C   UNL     1     -42.763 -17.870 -26.560  0.00  0.00    +0.000 A 
ATOM      5  C   UNL     1     -42.566 -17.060 -27.701  0.00  0.00    +0.000 A 
ATOM      6  C   UNL     1     -43.438 -15.991 -27.900  0.00  0.00    +0.000 A 
ATOM      7  C   UNL     1     -44.455 -15.718 -27.017  0.00  0.00    +0.000 A 
ATOM      8  C   UNL     1     -44.687 -16.492 -25.887  0.00  0.00    +0.000 A 
ATOM      9  C   UNL     1     -45.105 -14.614 -27.509  0.00  0.00    +0.000 A 
ATOM     10  C   UNL     1     -44.448 -14.300 -28.686  0.00  0.00    +0.000 A 
ATOM     11  C   UNL     1     -44.830 -13.143 -29.553  0.00  0.00    +0.000 C 
ATOM     12  C   UNL     1     -46.267 -12.694 -29.242  0.00  0.00    +0.000 C 
ATOM     13  C   UNL     1     -46.503 -12.577 -27.728  0.00  0.00    +0.000 C 
ATOM     14  C   UNL     1     -46.349 -13.937 -27.030  0.00  0.00    +0.000 C 
ATOM     15  C   UNL     1     -41.468 -17.336 -28.672  0.00  0.00    +0.000 C 
ATOM     16  C   UNL     1     -42.083 -19.705 -25.284  0.00  0.00    +0.000 A 
ATOM     17  C   UNL     1     -45.092 -18.162 -23.547  0.00  0.00    +0.000 C 
ATOM     18  O   UNL     1     -43.444 -15.129 -28.896  0.00  0.00    +0.000 OA
ATOM     19  O   UNL     1     -41.954 -18.900 -26.334  0.00  0.00    +0.000 OA
ATOM     20  O   UNL     1     -41.276 -20.662 -25.143  0.00  0.00    +0.000 OA
ENDROOT
BRANCH   1  21
ATOM     21  C   UNL     1     -43.263 -20.429 -23.177  0.00  0.00    +0.000 C 
BRANCH  21  22
ATOM     22  C   UNL     1     -42.686 -19.825 -21.944  0.00  0.00    +0.000 C 
ATOM     23  O   UNL     1     -41.583 -19.218 -22.003  0.00  0.00    +0.000 OA
ATOM     24  N   UNL     1     -43.372 -19.966 -20.699  0.00  0.00    +0.000 NA
BRANCH  24  25
ATOM     25  CA  UNL     1     -42.830 -19.443 -19.454  0.00  0.00    +0.000 C 
BRANCH  25  26
ATOM     26  C   UNL     1     -42.459 -20.572 -18.552  0.00  0.00    +0.000 C 
ATOM     27  OXT UNL     1     -42.990 -21.705 -18.693  0.00  0.00    +0.000 OA
ATOM     28  O   UNL     1     -41.514 -20.372 -17.555  0.00  0.00    +0.000 OA
ENDBRANCH  25  26
BRANCH  25  29
ATOM     29  C   UNL     1     -43.846 -18.533 -18.776  0.00  0.00    +0.000 C 
BRANCH  29  30
ATOM     30  C   UNL     1     -44.707 -17.804 -19.799  0.00  0.00    +0.000 C 
BRANCH  30  32
ATOM     31  C   UNL     1     -46.829 -19.117 -19.853  0.00  0.00    +0.000 C 
ATOM     32  C   UNL     1     -46.177 -17.821 -19.410  0.00  0.00    +0.000 C 
ENDBRANCH  30  32
ENDBRANCH  29  30
ENDBRANCH  25  29
ENDBRANCH  24  25
ENDBRANCH  21  22
ENDBRANCH   1  21
TORSDOF 7
ENDMDL
MODEL 3
REMARK VINA RESULT:      -6.8      2.551      5.117
REMARK  Name = ZINC000002155366 PubChem-1804311
REMARK  7 active torsions:
REMARK  status: ('A' for Active; 'I' for Inactive)
REMARK    1  A    between atoms: C_2  and  C_3
REMARK    2  A    between atoms: C_3  and  C_4
REMARK    3  A    between atoms: C_4  and  CA_5
REMARK    4  A    between atoms: CA_5  and  C_6
REMARK    5  A    between atoms: CA_5  and  N_32
REMARK    6  A    between atoms: C_7  and  C_8
REMARK    7  A    between atoms: C_8  and  C_9
REMARK                            x       y       z     vdW  Elec       q    Type
REMARK                         _______ _______ _______ _____ _____    ______ ____
ROOT
ATOM      1  C   UNL     1     -46.582  -6.730 -30.671  0.00  0.00    +0.000 A 
ATOM      2  C   UNL     1     -46.835  -5.587 -29.893  0.00  0.00    +0.000 A 
ATOM      3  C   UNL     1     -46.756  -5.682 -28.495  0.00  0.00    +0.000 A 
ATOM      4  C   UNL     1     -46.419  -6.942 -27.914  0.00  0.00    +0.000 A 
ATOM      5  C   UNL     1     -46.326  -7.078 -26.511  0.00  0.00    +0.000 A 
ATOM      6  C   UNL     1     -46.572  -5.951 -25.728  0.00  0.00    +0.000 A 
ATOM      7  C   UNL     1     -46.905  -4.743 -26.292  0.00  0.00    +0.000 A 
ATOM      8  C   UNL     1     -47.002  -4.564 -27.667  0.00  0.00    +0.000 A 
ATOM      9  C   UNL     1     -47.079  -3.868 -25.249  0.00  0.00    +0.000 A 
ATOM     10  C   UNL     1     -46.813  -4.604 -24.109  0.00  0.00    +0.000 A 
ATOM     11  C   UNL     1     -46.894  -4.034 -22.728  0.00  0.00    +0.000 C 
ATOM     12  C   UNL     1     -46.820  -2.499 -22.779  0.00  0.00    +0.000 C 
ATOM     13  C   UNL     1     -47.753  -1.928 -23.858  0.00  0.00    +0.000 C 
ATOM     14  C   UNL     1     -47.340  -2.395 -25.261  0.00  0.00    +0.000 C 
ATOM     15  C   UNL     1     -45.967  -8.380 -25.878  0.00  0.00    +0.000 C 
ATOM     16  C   UNL     1     -46.258  -7.934 -30.023  0.00  0.00    +0.000 A 
ATOM     17  C   UNL     1     -47.188  -4.286 -30.550  0.00  0.00    +0.000 C 
ATOM     18  O   UNL     1     -46.524  -5.854 -24.416  0.00  0.00    +0.000 OA
ATOM     19  O   UNL     1     -46.191  -7.992 -28.697  0.00  0.00    +0.000 OA
ATOM     20  O   UNL     1     -46.025  -8.976 -30.693  0.00  0.00    +0.000 OA
ENDROOT
BRANCH   1  21
ATOM     21  C   UNL     1     -46.624  -6.668 -32.172  0.00  0.00    +0.000 C 
BRANCH  21  22
ATOM     22  C   UNL     1     -45.267  -6.386 -32.719  0.00  0.00    +0.000 C 
ATOM     23  O   UNL     1     -44.598  -7.318 -33.239  0.00  0.00    +0.000 OA
ATOM     24  N   UNL     1     -44.725  -5.069 -32.621  0.00  0.00    +0.000 NA
BRANCH  24  25
ATOM     25  CA  UNL     1     -43.386  -4.747 -33.090  0.00  0.00    +0.000 C 
BRANCH  25  26
ATOM     26  C   UNL     1     -42.392  -5.033 -32.014  0.00  0.00    +0.000 C 
ATOM     27  OXT UNL     1     -42.689  -4.852 -30.804  0.00  0.00    +0.000 OA
ATOM     28  O   UNL     1     -41.133  -5.510 -32.351  0.00  0.00    +0.000 OA
ENDBRANCH  25  26
BRANCH  25  29
ATOM     29  C   UNL     1     -43.308  -3.285 -33.510  0.00  0.00    +0.000 C 
BRANCH  29  30
ATOM     30  C   UNL     1     -44.628  -2.567 -33.261  0.00  0.00    +0.000 C 
BRANCH  30  32
ATOM     31  C   UNL     1     -43.088  -0.604 -33.209  0.00  0.00    +0.000 C 
ATOM     32  C   UNL     1     -44.410  -1.162 -32.719  0.00  0.00    +0.000 C 
ENDBRANCH  30  32
ENDBRANCH  29  30
ENDBRANCH  25  29
ENDBRANCH  24  25
ENDBRANCH  21  22
ENDBRANCH   1  21
TORSDOF 7
ENDMDL
