MODEL 1
REMARK VINA RESULT:      -6.8      0.000      0.000
REMARK  Name = ZINC000493967026
REMARK  7 active torsions:
REMARK  status: ('A' for Active; 'I' for Inactive)
REMARK    1  A    between atoms: C_2  and  O_25
REMARK    2  A    between atoms: C_5  and  C_6
REMARK    3  A    between atoms: C_7  and  C_8
REMARK    4  A    between atoms: C_9  and  C_10
REMARK    5  A    between atoms: C_9  and  N_28
REMARK    6  A    between atoms: C_12  and  C_13
REMARK    7  A    between atoms: C_17  and  C_18
REMARK                            x       y       z     vdW  Elec       q    Type
REMARK                         _______ _______ _______ _____ _____    ______ ____
ROOT
ATOM      1  C   UNL     1     -46.624  -4.310 -30.540  0.00  0.00    +0.000 C 
ATOM      2  O   UNL     1     -46.697  -3.572 -29.521  0.00  0.00    +0.000 OA
ATOM      3  N   UNL     1     -46.834  -5.720 -30.430  0.00  0.00    +0.000 NA
ENDROOT
BRANCH   1   5
ATOM      4  C   UNL     1     -44.938  -4.177 -32.372  0.00  0.00    +0.000 C 
ATOM      5  C   UNL     1     -46.312  -3.697 -31.865  0.00  0.00    +0.000 C 
ATOM      6  C   UNL     1     -47.362  -4.099 -32.909  0.00  0.00    +0.000 C 
ATOM      7  C   UNL     1     -46.556  -4.727 -33.974  0.00  0.00    +0.000 C 
ATOM      8  C   UNL     1     -44.192  -5.524 -34.423  0.00  0.00    +0.000 C 
ATOM      9  O   UNL     1     -47.045  -5.212 -35.028  0.00  0.00    +0.000 OA
ATOM     10  N   UNL     1     -45.174  -4.749 -33.684  0.00  0.00    +0.000 N 
BRANCH   4  14
ATOM     11  C   UNL     1     -42.193  -0.865 -32.604  0.00  0.00    +0.000 A 
ATOM     12  C   UNL     1     -43.575  -0.653 -32.659  0.00  0.00    +0.000 A 
ATOM     13  C   UNL     1     -44.459  -1.734 -32.580  0.00  0.00    +0.000 A 
ATOM     14  C   UNL     1     -43.968  -3.036 -32.445  0.00  0.00    +0.000 A 
ATOM     15  C   UNL     1     -42.584  -3.254 -32.392  0.00  0.00    +0.000 A 
ATOM     16  C   UNL     1     -41.701  -2.174 -32.471  0.00  0.00    +0.000 A 
BRANCH  11  18
ATOM     17  C   UNL     1     -39.967   0.172 -32.312  0.00  0.00    +0.000 C 
ATOM     18  O   UNL     1     -41.337   0.236 -32.684  0.00  0.00    +0.000 OA
ENDBRANCH  11  18
ENDBRANCH   4  14
ENDBRANCH   1   5
BRANCH   3  19
ATOM     19  C   UNL     1     -47.131  -6.358 -29.160  0.00  0.00    +0.000 C 
BRANCH  19  20
ATOM     20  C   UNL     1     -47.094  -7.836 -29.328  0.00  0.00    +0.000 A 
ATOM     21  C   UNL     1     -47.126  -9.756 -30.255  0.00  0.00    +0.000 A 
ATOM     22  C   UNL     1     -46.829  -9.889 -28.914  0.00  0.00    +0.000 A 
ATOM     23  N   UNL     1     -47.289  -8.445 -30.513  0.00  0.00    +0.000 NA
ATOM     24  N   UNL     1     -46.799  -8.681 -28.322  0.00  0.00    +0.000 NA
BRANCH  22  25
ATOM     25  C   UNL     1     -46.566 -11.155 -28.208  0.00  0.00    +0.000 A 
ATOM     26  C   UNL     1     -46.511 -12.361 -28.920  0.00  0.00    +0.000 A 
ATOM     27  C   UNL     1     -46.263 -13.565 -28.254  0.00  0.00    +0.000 A 
ATOM     28  C   UNL     1     -46.067 -13.570 -26.871  0.00  0.00    +0.000 A 
ATOM     29  C   UNL     1     -46.120 -12.373 -26.153  0.00  0.00    +0.000 A 
ATOM     30  C   UNL     1     -46.369 -11.169 -26.819  0.00  0.00    +0.000 A 
BRANCH  29  31
ATOM     31  C   UNL     1     -45.920 -12.378 -24.731  0.00  0.00    +0.000 C 
ATOM     32  N   UNL     1     -45.758 -12.381 -23.585  0.00  0.00    +0.000 NA
ENDBRANCH  29  31
ENDBRANCH  22  25
ENDBRANCH  19  20
ENDBRANCH   3  19
TORSDOF 7
ENDMDL
MODEL 2
REMARK VINA RESULT:      -6.8      4.484      6.082
REMARK  Name = ZINC000493967026
REMARK  7 active torsions:
REMARK  status: ('A' for Active; 'I' for Inactive)
REMARK    1  A    between atoms: C_2  and  O_25
REMARK    2  A    between atoms: C_5  and  C_6
REMARK    3  A    between atoms: C_7  and  C_8
REMARK    4  A    between atoms: C_9  and  C_10
REMARK    5  A    between atoms: C_9  and  N_28
REMARK    6  A    between atoms: C_12  and  C_13
REMARK    7  A    between atoms: C_17  and  C_18
REMARK                            x       y       z     vdW  Elec       q    Type
REMARK                         _______ _______ _______ _____ _____    ______ ____
ROOT
ATOM      1  C   UNL     1     -46.570  -5.545 -33.579  0.00  0.00    +0.000 C 
ATOM      2  O   UNL     1     -47.299  -4.760 -34.242  0.00  0.00    +0.000 OA
ATOM      3  N   UNL     1     -46.573  -5.506 -32.150  0.00  0.00    +0.000 NA
ENDROOT
BRANCH   1   5
ATOM      4  C   UNL     1     -44.290  -6.548 -33.677  0.00  0.00    +0.000 C 
ATOM      5  C   UNL     1     -45.698  -6.518 -34.301  0.00  0.00    +0.000 C 
ATOM      6  C   UNL     1     -46.279  -7.936 -34.215  0.00  0.00    +0.000 C 
ATOM      7  C   UNL     1     -45.181  -8.714 -33.610  0.00  0.00    +0.000 C 
ATOM      8  C   UNL     1     -42.923  -8.377 -32.507  0.00  0.00    +0.000 C 
ATOM      9  O   UNL     1     -45.254  -9.944 -33.353  0.00  0.00    +0.000 OA
ATOM     10  N   UNL     1     -44.038  -7.934 -33.327  0.00  0.00    +0.000 N 
BRANCH   4  14
ATOM     11  C   UNL     1     -41.353  -5.134 -36.491  0.00  0.00    +0.000 A 
ATOM     12  C   UNL     1     -42.249  -6.148 -36.844  0.00  0.00    +0.000 A 
ATOM     13  C   UNL     1     -43.201  -6.600 -35.924  0.00  0.00    +0.000 A 
ATOM     14  C   UNL     1     -43.265  -6.040 -34.645  0.00  0.00    +0.000 A 
ATOM     15  C   UNL     1     -42.366  -5.024 -34.286  0.00  0.00    +0.000 A 
ATOM     16  C   UNL     1     -41.415  -4.573 -35.206  0.00  0.00    +0.000 A 
BRANCH  11  18
ATOM     17  C   UNL     1     -39.018  -4.923 -37.281  0.00  0.00    +0.000 C 
ATOM     18  O   UNL     1     -40.415  -4.705 -37.434  0.00  0.00    +0.000 OA
ENDBRANCH  11  18
ENDBRANCH   4  14
ENDBRANCH   1   5
BRANCH   3  19
ATOM     19  C   UNL     1     -47.399  -4.570 -31.407  0.00  0.00    +0.000 C 
BRANCH  19  20
ATOM     20  C   UNL     1     -47.223  -4.804 -29.948  0.00  0.00    +0.000 A 
ATOM     21  C   UNL     1     -46.708  -5.759 -28.112  0.00  0.00    +0.000 A 
ATOM     22  C   UNL     1     -47.117  -4.464 -27.867  0.00  0.00    +0.000 A 
ATOM     23  N   UNL     1     -46.773  -5.968 -29.440  0.00  0.00    +0.000 NA
ATOM     24  N   UNL     1     -47.438  -3.851 -29.022  0.00  0.00    +0.000 NA
BRANCH  22  25
ATOM     25  C   UNL     1     -47.193  -3.816 -26.546  0.00  0.00    +0.000 A 
ATOM     26  C   UNL     1     -47.339  -2.426 -26.450  0.00  0.00    +0.000 A 
ATOM     27  C   UNL     1     -47.411  -1.807 -25.198  0.00  0.00    +0.000 A 
ATOM     28  C   UNL     1     -47.337  -2.577 -24.034  0.00  0.00    +0.000 A 
ATOM     29  C   UNL     1     -47.191  -3.963 -24.120  0.00  0.00    +0.000 A 
ATOM     30  C   UNL     1     -47.119  -4.582 -25.372  0.00  0.00    +0.000 A 
BRANCH  29  31
ATOM     31  C   UNL     1     -47.114  -4.754 -22.924  0.00  0.00    +0.000 C 
ATOM     32  N   UNL     1     -47.053  -5.391 -21.961  0.00  0.00    +0.000 NA
ENDBRANCH  29  31
ENDBRANCH  22  25
ENDBRANCH  19  20
ENDBRANCH   3  19
TORSDOF 7
ENDMDL
MODEL 3
REMARK VINA RESULT:      -6.8      9.628     13.349
REMARK  Name = ZINC000493967026
REMARK  7 active torsions:
REMARK  status: ('A' for Active; 'I' for Inactive)
REMARK    1  A    between atoms: C_2  and  O_25
REMARK    2  A    between atoms: C_5  and  C_6
REMARK    3  A    between atoms: C_7  and  C_8
REMARK    4  A    between atoms: C_9  and  C_10
REMARK    5  A    between atoms: C_9  and  N_28
REMARK    6  A    between atoms: C_12  and  C_13
REMARK    7  A    between atoms: C_17  and  C_18
REMARK                            x       y       z     vdW  Elec       q    Type
REMARK                         _______ _______ _______ _____ _____    ______ ____
ROOT
ATOM      1  C   UNL     1     -44.194 -19.584 -25.703  0.00  0.00    +0.000 C 
ATOM      2  O   UNL     1     -45.311 -20.165 -25.684  0.00  0.00    +0.000 OA
ATOM      3  N   UNL     1     -43.332 -19.632 -24.563  0.00  0.00    +0.000 NA
ENDROOT
BRANCH   1   5
ATOM      4  C   UNL     1     -42.966 -17.587 -26.550  0.00  0.00    +0.000 C 
ATOM      5  C   UNL     1     -43.778 -18.841 -26.928  0.00  0.00    +0.000 C 
ATOM      6  C   UNL     1     -42.893 -19.719 -27.823  0.00  0.00    +0.000 C 
ATOM      7  C   UNL     1     -41.658 -18.922 -27.962  0.00  0.00    +0.000 C 
ATOM      8  C   UNL     1     -40.555 -16.845 -27.017  0.00  0.00    +0.000 C 
ATOM      9  O   UNL     1     -40.654 -19.298 -28.623  0.00  0.00    +0.000 OA
ATOM     10  N   UNL     1     -41.707 -17.697 -27.263  0.00  0.00    +0.000 N 
BRANCH   4  14
ATOM     11  C   UNL     1     -45.112 -14.010 -27.624  0.00  0.00    +0.000 A 
ATOM     12  C   UNL     1     -45.330 -14.631 -26.389  0.00  0.00    +0.000 A 
ATOM     13  C   UNL     1     -44.627 -15.790 -26.047  0.00  0.00    +0.000 A 
ATOM     14  C   UNL     1     -43.699 -16.339 -26.938  0.00  0.00    +0.000 A 
ATOM     15  C   UNL     1     -43.480 -15.721 -28.179  0.00  0.00    +0.000 A 
ATOM     16  C   UNL     1     -44.182 -14.562 -28.519  0.00  0.00    +0.000 A 
BRANCH  11  18
ATOM     17  C   UNL     1     -47.233 -12.858 -28.162  0.00  0.00    +0.000 C 
ATOM     18  O   UNL     1     -45.830 -12.852 -27.933  0.00  0.00    +0.000 OA
ENDBRANCH  11  18
ENDBRANCH   4  14
ENDBRANCH   1   5
BRANCH   3  19
ATOM     19  C   UNL     1     -43.700 -20.337 -23.348  0.00  0.00    +0.000 C 
BRANCH  19  20
ATOM     20  C   UNL     1     -44.126 -19.354 -22.315  0.00  0.00    +0.000 A 
ATOM     21  C   UNL     1     -44.393 -18.422 -20.415  0.00  0.00    +0.000 A 
ATOM     22  C   UNL     1     -44.868 -17.595 -21.414  0.00  0.00    +0.000 A 
ATOM     23  N   UNL     1     -43.916 -19.538 -20.997  0.00  0.00    +0.000 NA
ATOM     24  N   UNL     1     -44.697 -18.174 -22.617  0.00  0.00    +0.000 NA
BRANCH  22  25
ATOM     25  C   UNL     1     -45.471 -16.265 -21.221  0.00  0.00    +0.000 A 
ATOM     26  C   UNL     1     -45.742 -15.447 -22.326  0.00  0.00    +0.000 A 
ATOM     27  C   UNL     1     -46.313 -14.183 -22.147  0.00  0.00    +0.000 A 
ATOM     28  C   UNL     1     -46.617 -13.730 -20.861  0.00  0.00    +0.000 A 
ATOM     29  C   UNL     1     -46.350 -14.539 -19.753  0.00  0.00    +0.000 A 
ATOM     30  C   UNL     1     -45.779 -15.803 -19.932  0.00  0.00    +0.000 A 
BRANCH  29  31
ATOM     31  C   UNL     1     -46.662 -14.074 -18.432  0.00  0.00    +0.000 C 
ATOM     32  N   UNL     1     -46.913 -13.698 -17.366  0.00  0.00    +0.000 NA
ENDBRANCH  29  31
ENDBRANCH  22  25
ENDBRANCH  19  20
ENDBRANCH   3  19
TORSDOF 7
ENDMDL
