MODEL 1
REMARK VINA RESULT:      -6.2      0.000      0.000
REMARK  Name = ZINC000012896535 ZINC12896535 CSCC[C@@H](CO)NC(=O)Cc1c(C)c2cc3c(C)coc3cc2oc1=O MCULE-4833014261 MolPort-002-536-305 PubChem-16408420
REMARK  7 active torsions:
REMARK  status: ('A' for Active; 'I' for Inactive)
REMARK    1  A    between atoms: CG_2  and  CB_3
REMARK    2  A    between atoms: CG_2  and  SD_21
REMARK    3  A    between atoms: CB_3  and  CA_4
REMARK    4  A    between atoms: CA_4  and  C_5
REMARK    5  A    between atoms: CA_4  and  N_27
REMARK    6  A    between atoms: C_6  and  C_7
REMARK    7  A    between atoms: C_7  and  C_8
REMARK                            x       y       z     vdW  Elec       q    Type
REMARK                         _______ _______ _______ _____ _____    ______ ____
ROOT
ATOM      1  C   UNK A   0     -47.039  -5.561 -28.516  0.00  0.00    +0.000 A 
ATOM      2  C   UNK A   0     -46.827  -5.839 -27.153  0.00  0.00    +0.000 A 
ATOM      3  C   UNK A   0     -46.429  -7.216 -26.712  0.00  0.00    +0.000 C 
ATOM      4  C   UNK A   0     -46.987  -4.807 -26.214  0.00  0.00    +0.000 A 
ATOM      5  C   UNK A   0     -46.788  -5.025 -24.833  0.00  0.00    +0.000 A 
ATOM      6  C   UNK A   0     -46.970  -3.943 -23.977  0.00  0.00    +0.000 A 
ATOM      7  C   UNK A   0     -47.327  -2.706 -24.428  0.00  0.00    +0.000 A 
ATOM      8  C   UNK A   0     -47.155  -2.508 -22.305  0.00  0.00    +0.000 A 
ATOM      9  C   UNK A   0     -46.855  -3.831 -22.613  0.00  0.00    +0.000 A 
ATOM     10  C   UNK A   0     -46.487  -4.903 -21.649  0.00  0.00    +0.000 C 
ATOM     11  C   UNK A   0     -47.533  -2.448 -25.781  0.00  0.00    +0.000 A 
ATOM     12  C   UNK A   0     -47.361  -3.513 -26.685  0.00  0.00    +0.000 A 
ATOM     13  C   UNK A   0     -47.407  -4.257 -28.895  0.00  0.00    +0.000 A 
ATOM     14  O   UNK A   0     -47.433  -1.864 -23.428  0.00  0.00    +0.000 OA
ATOM     15  O   UNK A   0     -47.550  -3.302 -27.982  0.00  0.00    +0.000 OA
ATOM     16  O   UNK A   0     -47.605  -3.978 -30.107  0.00  0.00    +0.000 OA
ENDROOT
BRANCH   1  17
ATOM     17  C   UNK A   0     -46.906  -6.639 -29.553  0.00  0.00    +0.000 C 
BRANCH  17  18
ATOM     18  C   UNK A   0     -45.860  -6.277 -30.553  0.00  0.00    +0.000 C 
ATOM     19  O   UNK A   0     -46.093  -6.425 -31.782  0.00  0.00    +0.000 OA
ATOM     20  N   MET A   1     -44.589  -5.800 -30.105  0.00  0.00    +0.000 NA
BRANCH  20  21
ATOM     21  CA  MET A   1     -43.516  -5.421 -31.017  0.00  0.00    +0.000 C 
BRANCH  21  22
ATOM     22  C   MET A   1     -42.164  -5.734 -30.397  0.00  0.00    +0.000 C 
ATOM     23  O   MET A   1     -42.287  -5.825 -29.011  0.00  0.00    +0.000 OA
ENDBRANCH  21  22
BRANCH  21  24
ATOM     24  CB  MET A   1     -43.613  -3.943 -31.397  0.00  0.00    +0.000 C 
BRANCH  24  25
ATOM     25  CG  MET A   1     -44.135  -3.746 -32.812  0.00  0.00    +0.000 C 
BRANCH  25  27
ATOM     26  CE  MET A   1     -46.598  -3.301 -33.547  0.00  0.00    +0.000 C 
ATOM     27  SD  MET A   1     -45.246  -2.314 -32.851  0.00  0.00    +0.000 S 
ENDBRANCH  25  27
ENDBRANCH  24  25
ENDBRANCH  21  24
ENDBRANCH  20  21
ENDBRANCH  17  18
ENDBRANCH   1  17
TORSDOF 7
ENDMDL
MODEL 2
REMARK VINA RESULT:      -6.1      3.869      7.639
REMARK  Name = ZINC000012896535 ZINC12896535 CSCC[C@@H](CO)NC(=O)Cc1c(C)c2cc3c(C)coc3cc2oc1=O MCULE-4833014261 MolPort-002-536-305 PubChem-16408420
REMARK  7 active torsions:
REMARK  status: ('A' for Active; 'I' for Inactive)
REMARK    1  A    between atoms: CG_2  and  CB_3
REMARK    2  A    between atoms: CG_2  and  SD_21
REMARK    3  A    between atoms: CB_3  and  CA_4
REMARK    4  A    between atoms: CA_4  and  C_5
REMARK    5  A    between atoms: CA_4  and  N_27
REMARK    6  A    between atoms: C_6  and  C_7
REMARK    7  A    between atoms: C_7  and  C_8
REMARK                            x       y       z     vdW  Elec       q    Type
REMARK                         _______ _______ _______ _____ _____    ______ ____
ROOT
ATOM      1  C   UNK A   0     -45.498  -4.446 -33.688  0.00  0.00    +0.000 A 
ATOM      2  C   UNK A   0     -44.097  -4.497 -33.577  0.00  0.00    +0.000 A 
ATOM      3  C   UNK A   0     -43.371  -5.801 -33.721  0.00  0.00    +0.000 C 
ATOM      4  C   UNK A   0     -43.389  -3.308 -33.338  0.00  0.00    +0.000 A 
ATOM      5  C   UNK A   0     -41.981  -3.297 -33.218  0.00  0.00    +0.000 A 
ATOM      6  C   UNK A   0     -41.365  -2.072 -32.980  0.00  0.00    +0.000 A 
ATOM      7  C   UNK A   0     -42.070  -0.909 -32.864  0.00  0.00    +0.000 A 
ATOM      8  C   UNK A   0     -40.019  -0.358 -32.606  0.00  0.00    +0.000 A 
ATOM      9  C   UNK A   0     -40.044  -1.733 -32.817  0.00  0.00    +0.000 A 
ATOM     10  C   UNK A   0     -38.868  -2.644 -32.855  0.00  0.00    +0.000 C 
ATOM     11  C   UNK A   0     -43.457  -0.876 -32.975  0.00  0.00    +0.000 A 
ATOM     12  C   UNK A   0     -44.124  -2.092 -33.216  0.00  0.00    +0.000 A 
ATOM     13  C   UNK A   0     -46.146  -3.204 -33.553  0.00  0.00    +0.000 A 
ATOM     14  O   UNK A   0     -41.261   0.099 -32.642  0.00  0.00    +0.000 OA
ATOM     15  O   UNK A   0     -45.447  -2.097 -33.327  0.00  0.00    +0.000 OA
ATOM     16  O   UNK A   0     -47.400  -3.127 -33.646  0.00  0.00    +0.000 OA
ENDROOT
BRANCH   1  17
ATOM     17  C   UNK A   0     -46.301  -5.695 -33.917  0.00  0.00    +0.000 C 
BRANCH  17  18
ATOM     18  C   UNK A   0     -46.665  -6.328 -32.618  0.00  0.00    +0.000 C 
ATOM     19  O   UNK A   0     -47.066  -7.523 -32.595  0.00  0.00    +0.000 OA
ATOM     20  N   MET A   1     -46.592  -5.562 -31.412  0.00  0.00    +0.000 NA
BRANCH  20  21
ATOM     21  CA  MET A   1     -46.926  -6.109 -30.102  0.00  0.00    +0.000 C 
BRANCH  21  22
ATOM     22  C   MET A   1     -47.388  -4.999 -29.172  0.00  0.00    +0.000 C 
ATOM     23  O   MET A   1     -47.586  -3.824 -29.897  0.00  0.00    +0.000 OA
ENDBRANCH  21  22
BRANCH  21  24
ATOM     24  CB  MET A   1     -45.740  -6.865 -29.502  0.00  0.00    +0.000 C 
BRANCH  24  25
ATOM     25  CG  MET A   1     -45.083  -6.093 -28.367  0.00  0.00    +0.000 C 
BRANCH  25  27
ATOM     26  CE  MET A   1     -43.084  -5.688 -29.995  0.00  0.00    +0.000 C 
ATOM     27  SD  MET A   1     -43.302  -6.436 -28.358  0.00  0.00    +0.000 S 
ENDBRANCH  25  27
ENDBRANCH  24  25
ENDBRANCH  21  24
ENDBRANCH  20  21
ENDBRANCH  17  18
ENDBRANCH   1  17
TORSDOF 7
ENDMDL
MODEL 3
REMARK VINA RESULT:      -6.0     13.423     15.577
REMARK  Name = ZINC000012896535 ZINC12896535 CSCC[C@@H](CO)NC(=O)Cc1c(C)c2cc3c(C)coc3cc2oc1=O MCULE-4833014261 MolPort-002-536-305 PubChem-16408420
REMARK  7 active torsions:
REMARK  status: ('A' for Active; 'I' for Inactive)
REMARK    1  A    between atoms: CG_2  and  CB_3
REMARK    2  A    between atoms: CG_2  and  SD_21
REMARK    3  A    between atoms: CB_3  and  CA_4
REMARK    4  A    between atoms: CA_4  and  C_5
REMARK    5  A    between atoms: CA_4  and  N_27
REMARK    6  A    between atoms: C_6  and  C_7
REMARK    7  A    between atoms: C_7  and  C_8
REMARK                            x       y       z     vdW  Elec       q    Type
REMARK                         _______ _______ _______ _____ _____    ______ ____
ROOT
ATOM      1  C   UNK A   0     -45.628 -17.843 -21.311  0.00  0.00    +0.000 A 
ATOM      2  C   UNK A   0     -45.657 -16.448 -21.480  0.00  0.00    +0.000 A 
ATOM      3  C   UNK A   0     -45.435 -15.842 -22.834  0.00  0.00    +0.000 C 
ATOM      4  C   UNK A   0     -45.903 -15.630 -20.365  0.00  0.00    +0.000 A 
ATOM      5  C   UNK A   0     -45.944 -14.222 -20.473  0.00  0.00    +0.000 A 
ATOM      6  C   UNK A   0     -46.194 -13.494 -19.314  0.00  0.00    +0.000 A 
ATOM      7  C   UNK A   0     -46.396 -14.092 -18.104  0.00  0.00    +0.000 A 
ATOM      8  C   UNK A   0     -46.557 -11.991 -17.733  0.00  0.00    +0.000 A 
ATOM      9  C   UNK A   0     -46.295 -12.143 -19.092  0.00  0.00    +0.000 A 
ATOM     10  C   UNK A   0     -46.153 -11.051 -20.093  0.00  0.00    +0.000 C 
ATOM     11  C   UNK A   0     -46.364 -15.475 -17.954  0.00  0.00    +0.000 A 
ATOM     12  C   UNK A   0     -46.114 -16.254 -19.099  0.00  0.00    +0.000 A 
ATOM     13  C   UNK A   0     -45.845 -18.377 -20.027  0.00  0.00    +0.000 A 
ATOM     14  O   UNK A   0     -46.610 -13.190 -17.175  0.00  0.00    +0.000 OA
ATOM     15  O   UNK A   0     -46.075 -17.576 -18.991  0.00  0.00    +0.000 OA
ATOM     16  O   UNK A   0     -45.824 -19.623 -19.843  0.00  0.00    +0.000 OA
ENDROOT
BRANCH   1  17
ATOM     17  C   UNK A   0     -45.342 -18.756 -22.469  0.00  0.00    +0.000 C 
BRANCH  17  18
ATOM     18  C   UNK A   0     -43.877 -19.007 -22.588  0.00  0.00    +0.000 C 
ATOM     19  O   UNK A   0     -43.198 -18.354 -23.426  0.00  0.00    +0.000 OA
ATOM     20  N   MET A   1     -43.263 -20.012 -21.777  0.00  0.00    +0.000 NA
BRANCH  20  21
ATOM     21  CA  MET A   1     -41.837 -20.313 -21.831  0.00  0.00    +0.000 C 
BRANCH  21  22
ATOM     22  C   MET A   1     -41.624 -21.779 -22.174  0.00  0.00    +0.000 C 
ATOM     23  O   MET A   1     -42.460 -22.147 -23.228  0.00  0.00    +0.000 OA
ENDBRANCH  21  22
BRANCH  21  24
ATOM     24  CB  MET A   1     -41.149 -19.957 -20.513  0.00  0.00    +0.000 C 
BRANCH  24  25
ATOM     25  CG  MET A   1     -42.090 -19.257 -19.544  0.00  0.00    +0.000 C 
BRANCH  25  27
ATOM     26  CE  MET A   1     -41.020 -21.303 -18.327  0.00  0.00    +0.000 C 
ATOM     27  SD  MET A   1     -42.606 -20.426 -18.257  0.00  0.00    +0.000 S 
ENDBRANCH  25  27
ENDBRANCH  24  25
ENDBRANCH  21  24
ENDBRANCH  20  21
ENDBRANCH  17  18
ENDBRANCH   1  17
TORSDOF 7
ENDMDL
