MODEL 1
REMARK VINA RESULT:      -5.9      0.000      0.000
REMARK  Name = ZINC000096134108 PubChem-97435384
REMARK  9 active torsions:
REMARK  status: ('A' for Active; 'I' for Inactive)
REMARK    1  A    between atoms: C_2  and  O_24
REMARK    2  A    between atoms: C_6  and  C_9
REMARK    3  A    between atoms: C_7  and  O_25
REMARK    4  A    between atoms: C_8  and  O_25
REMARK    5  A    between atoms: C_10  and  C_11
REMARK    6  A    between atoms: C_12  and  C_13
REMARK    7  A    between atoms: C_12  and  N_30
REMARK    8  A    between atoms: C_13  and  C_14
REMARK    9  A    between atoms: C_13  and  N_31
REMARK                            x       y       z     vdW  Elec       q    Type
REMARK                         _______ _______ _______ _____ _____    ______ ____
ROOT
ATOM      1  C   UNL     1     -46.210  -3.273 -31.425  0.00  0.00    +0.000 C 
ATOM      2  O   UNL     1     -45.888  -2.387 -30.589  0.00  0.00    +0.000 OA
ATOM      3  N   UNL     1     -46.309  -4.640 -31.015  0.00  0.00    +0.000 NA
ENDROOT
BRANCH   1   5
ATOM      4  C   UNL     1     -45.506  -2.294 -33.635  0.00  0.00    +0.000 C 
ATOM      5  C   UNL     1     -46.401  -2.882 -32.832  0.00  0.00    +0.000 C 
BRANCH   4  10
ATOM      6  C   UNL     1     -41.717  -2.666 -33.312  0.00  0.00    +0.000 A 
ATOM      7  C   UNL     1     -41.416  -1.429 -32.733  0.00  0.00    +0.000 A 
ATOM      8  C   UNL     1     -42.419  -0.513 -32.439  0.00  0.00    +0.000 A 
ATOM      9  C   UNL     1     -43.742  -0.815 -32.738  0.00  0.00    +0.000 A 
ATOM     10  C   UNL     1     -44.084  -2.034 -33.338  0.00  0.00    +0.000 A 
ATOM     11  C   UNL     1     -43.070  -3.000 -33.595  0.00  0.00    +0.000 A 
BRANCH   6  13
ATOM     12  C   UNL     1     -40.106  -4.472 -32.656  0.00  0.00    +0.000 C 
ATOM     13  O   UNL     1     -40.630  -3.518 -33.566  0.00  0.00    +0.000 OA
ENDBRANCH   6  13
BRANCH  11  14
ATOM     14  O   UNL     1     -43.352  -4.263 -34.143  0.00  0.00    +0.000 OA
BRANCH  14  15
ATOM     15  C   UNL     1     -43.629  -5.440 -33.395  0.00  0.00    +0.000 C 
ATOM     16  F   UNL     1     -43.430  -5.188 -32.052  0.00  0.00    +0.000 F 
ATOM     17  F   UNL     1     -44.943  -5.822 -33.599  0.00  0.00    +0.000 F 
ENDBRANCH  14  15
ENDBRANCH  11  14
ENDBRANCH   4  10
ENDBRANCH   1   5
BRANCH   3  18
ATOM     18  C   UNL     1     -46.035  -5.078 -29.654  0.00  0.00    +0.000 C 
BRANCH  18  19
ATOM     19  C   UNL     1     -46.552  -6.500 -29.441  0.00  0.00    +0.000 C 
BRANCH  19  20
ATOM     20  C   UNL     1     -46.224  -7.402 -30.605  0.00  0.00    +0.000 A 
ATOM     21  C   UNL     1     -44.929  -7.908 -30.806  0.00  0.00    +0.000 A 
ATOM     22  C   UNL     1     -44.656  -8.729 -31.904  0.00  0.00    +0.000 A 
ATOM     23  C   UNL     1     -45.673  -9.044 -32.809  0.00  0.00    +0.000 A 
ATOM     24  C   UNL     1     -46.961  -8.536 -32.620  0.00  0.00    +0.000 A 
ATOM     25  C   UNL     1     -47.234  -7.715 -31.521  0.00  0.00    +0.000 A 
ATOM     26 CL   UNL     1     -45.332 -10.072 -34.184  0.00  0.00    +0.000 Cl
ENDBRANCH  19  20
BRANCH  19  32
ATOM     27  C   UNL     1     -46.388  -5.991 -27.102  0.00  0.00    +0.000 C 
ATOM     28  C   UNL     1     -46.074  -6.558 -25.716  0.00  0.00    +0.000 C 
ATOM     29  C   UNL     1     -46.579  -8.671 -26.347  0.00  0.00    +0.000 C 
ATOM     30  C   UNL     1     -46.927  -8.240 -27.774  0.00  0.00    +0.000 C 
ATOM     31  O   UNL     1     -46.923  -7.647 -25.445  0.00  0.00    +0.000 OA
ATOM     32  N   UNL     1     -46.173  -7.027 -28.118  0.00  0.00    +0.000 NA
ENDBRANCH  19  32
ENDBRANCH  18  19
ENDBRANCH   3  18
TORSDOF 9
ENDMDL
MODEL 2
REMARK VINA RESULT:      -5.8      2.399      3.786
REMARK  Name = ZINC000096134108 PubChem-97435384
REMARK  9 active torsions:
REMARK  status: ('A' for Active; 'I' for Inactive)
REMARK    1  A    between atoms: C_2  and  O_24
REMARK    2  A    between atoms: C_6  and  C_9
REMARK    3  A    between atoms: C_7  and  O_25
REMARK    4  A    between atoms: C_8  and  O_25
REMARK    5  A    between atoms: C_10  and  C_11
REMARK    6  A    between atoms: C_12  and  C_13
REMARK    7  A    between atoms: C_12  and  N_30
REMARK    8  A    between atoms: C_13  and  C_14
REMARK    9  A    between atoms: C_13  and  N_31
REMARK                            x       y       z     vdW  Elec       q    Type
REMARK                         _______ _______ _______ _____ _____    ______ ____
ROOT
ATOM      1  C   UNL     1     -46.294  -3.077 -31.427  0.00  0.00    +0.000 C 
ATOM      2  O   UNL     1     -45.879  -2.138 -30.696  0.00  0.00    +0.000 OA
ATOM      3  N   UNL     1     -46.565  -4.360 -30.857  0.00  0.00    +0.000 NA
ENDROOT
BRANCH   1   5
ATOM      4  C   UNL     1     -45.477  -2.354 -33.696  0.00  0.00    +0.000 C 
ATOM      5  C   UNL     1     -46.415  -2.844 -32.877  0.00  0.00    +0.000 C 
BRANCH   4  10
ATOM      6  C   UNL     1     -41.713  -2.715 -33.140  0.00  0.00    +0.000 A 
ATOM      7  C   UNL     1     -41.424  -1.419 -32.704  0.00  0.00    +0.000 A 
ATOM      8  C   UNL     1     -42.427  -0.465 -32.576  0.00  0.00    +0.000 A 
ATOM      9  C   UNL     1     -43.738  -0.791 -32.901  0.00  0.00    +0.000 A 
ATOM     10  C   UNL     1     -44.067  -2.072 -33.363  0.00  0.00    +0.000 A 
ATOM     11  C   UNL     1     -43.056  -3.071 -33.447  0.00  0.00    +0.000 A 
BRANCH   6  13
ATOM     12  C   UNL     1     -39.262  -3.242 -33.093  0.00  0.00    +0.000 C 
ATOM     13  O   UNL     1     -40.628  -3.601 -33.232  0.00  0.00    +0.000 OA
ENDBRANCH   6  13
BRANCH  11  14
ATOM     14  O   UNL     1     -43.329  -4.389 -33.849  0.00  0.00    +0.000 OA
BRANCH  14  15
ATOM     15  C   UNL     1     -43.662  -5.462 -32.977  0.00  0.00    +0.000 C 
ATOM     16  F   UNL     1     -43.564  -5.035 -31.666  0.00  0.00    +0.000 F 
ATOM     17  F   UNL     1     -44.955  -5.881 -33.226  0.00  0.00    +0.000 F 
ENDBRANCH  14  15
ENDBRANCH  11  14
ENDBRANCH   4  10
ENDBRANCH   1   5
BRANCH   3  18
ATOM     18  C   UNL     1     -46.368  -4.655 -29.446  0.00  0.00    +0.000 C 
BRANCH  18  19
ATOM     19  C   UNL     1     -45.634  -5.985 -29.279  0.00  0.00    +0.000 C 
BRANCH  19  20
ATOM     20  C   UNL     1     -45.418  -6.334 -27.827  0.00  0.00    +0.000 A 
ATOM     21  C   UNL     1     -46.345  -5.975 -26.834  0.00  0.00    +0.000 A 
ATOM     22  C   UNL     1     -46.106  -6.300 -25.497  0.00  0.00    +0.000 A 
ATOM     23  C   UNL     1     -44.938  -6.981 -25.142  0.00  0.00    +0.000 A 
ATOM     24  C   UNL     1     -44.007  -7.332 -26.124  0.00  0.00    +0.000 A 
ATOM     25  C   UNL     1     -44.247  -7.007 -27.463  0.00  0.00    +0.000 A 
ATOM     26 CL   UNL     1     -44.638  -7.389 -23.467  0.00  0.00    +0.000 Cl
ENDBRANCH  19  20
BRANCH  19  32
ATOM     27  C   UNL     1     -45.191  -7.949 -30.583  0.00  0.00    +0.000 C 
ATOM     28  C   UNL     1     -45.825  -9.105 -31.360  0.00  0.00    +0.000 C 
ATOM     29  C   UNL     1     -47.756  -8.976 -30.190  0.00  0.00    +0.000 C 
ATOM     30  C   UNL     1     -47.248  -7.812 -29.336  0.00  0.00    +0.000 C 
ATOM     31  O   UNL     1     -46.686  -9.830 -30.515  0.00  0.00    +0.000 OA
ATOM     32  N   UNL     1     -46.244  -7.052 -30.092  0.00  0.00    +0.000 NA
ENDBRANCH  19  32
ENDBRANCH  18  19
ENDBRANCH   3  18
TORSDOF 9
ENDMDL
MODEL 3
REMARK VINA RESULT:      -5.6      9.693     14.593
REMARK  Name = ZINC000096134108 PubChem-97435384
REMARK  9 active torsions:
REMARK  status: ('A' for Active; 'I' for Inactive)
REMARK    1  A    between atoms: C_2  and  O_24
REMARK    2  A    between atoms: C_6  and  C_9
REMARK    3  A    between atoms: C_7  and  O_25
REMARK    4  A    between atoms: C_8  and  O_25
REMARK    5  A    between atoms: C_10  and  C_11
REMARK    6  A    between atoms: C_12  and  C_13
REMARK    7  A    between atoms: C_12  and  N_30
REMARK    8  A    between atoms: C_13  and  C_14
REMARK    9  A    between atoms: C_13  and  N_31
REMARK                            x       y       z     vdW  Elec       q    Type
REMARK                         _______ _______ _______ _____ _____    ______ ____
ROOT
ATOM      1  C   UNL     1     -45.523 -13.982 -22.396  0.00  0.00    +0.000 C 
ATOM      2  O   UNL     1     -46.735 -14.238 -22.166  0.00  0.00    +0.000 OA
ATOM      3  N   UNL     1     -45.063 -13.854 -23.744  0.00  0.00    +0.000 NA
ENDROOT
BRANCH   1   5
ATOM      4  C   UNL     1     -44.294 -14.869 -20.386  0.00  0.00    +0.000 C 
ATOM      5  C   UNL     1     -44.589 -13.899 -21.260  0.00  0.00    +0.000 C 
BRANCH   4  10
ATOM      6  C   UNL     1     -44.449 -18.610 -21.149  0.00  0.00    +0.000 A 
ATOM      7  C   UNL     1     -45.641 -18.926 -20.490  0.00  0.00    +0.000 A 
ATOM      8  C   UNL     1     -46.379 -17.947 -19.836  0.00  0.00    +0.000 A 
ATOM      9  C   UNL     1     -45.925 -16.634 -19.816  0.00  0.00    +0.000 A 
ATOM     10  C   UNL     1     -44.725 -16.279 -20.445  0.00  0.00    +0.000 A 
ATOM     11  C   UNL     1     -43.988 -17.265 -21.162  0.00  0.00    +0.000 A 
BRANCH   6  13
ATOM     12  C   UNL     1     -42.469 -20.114 -21.470  0.00  0.00    +0.000 C 
ATOM     13  O   UNL     1     -43.782 -19.672 -21.779  0.00  0.00    +0.000 OA
ENDBRANCH   6  13
BRANCH  11  14
ATOM     14  O   UNL     1     -42.807 -16.964 -21.862  0.00  0.00    +0.000 OA
BRANCH  14  15
ATOM     15  C   UNL     1     -42.730 -16.635 -23.243  0.00  0.00    +0.000 C 
ATOM     16  F   UNL     1     -42.197 -15.368 -23.384  0.00  0.00    +0.000 F 
ATOM     17  F   UNL     1     -41.922 -17.547 -23.895  0.00  0.00    +0.000 F 
ENDBRANCH  14  15
ENDBRANCH  11  14
ENDBRANCH   4  10
ENDBRANCH   1   5
BRANCH   3  18
ATOM     18  C   UNL     1     -45.937 -14.023 -24.896  0.00  0.00    +0.000 C 
BRANCH  18  19
ATOM     19  C   UNL     1     -45.189 -14.720 -26.031  0.00  0.00    +0.000 C 
BRANCH  19  20
ATOM     20  C   UNL     1     -45.090 -16.210 -25.813  0.00  0.00    +0.000 A 
ATOM     21  C   UNL     1     -44.179 -17.004 -26.528  0.00  0.00    +0.000 A 
ATOM     22  C   UNL     1     -44.125 -18.383 -26.313  0.00  0.00    +0.000 A 
ATOM     23  C   UNL     1     -44.984 -18.978 -25.385  0.00  0.00    +0.000 A 
ATOM     24  C   UNL     1     -45.900 -18.196 -24.677  0.00  0.00    +0.000 A 
ATOM     25  C   UNL     1     -45.954 -16.815 -24.892  0.00  0.00    +0.000 A 
ATOM     26 CL   UNL     1     -44.917 -20.706 -25.114  0.00  0.00    +0.000 Cl
ENDBRANCH  19  20
BRANCH  19  32
ATOM     27  C   UNL     1     -46.572 -13.147 -27.200  0.00  0.00    +0.000 C 
ATOM     28  C   UNL     1     -47.042 -12.675 -28.578  0.00  0.00    +0.000 C 
ATOM     29  C   UNL     1     -45.204 -13.499 -29.608  0.00  0.00    +0.000 C 
ATOM     30  C   UNL     1     -44.615 -14.024 -28.297  0.00  0.00    +0.000 C 
ATOM     31  O   UNL     1     -45.930 -12.318 -29.363  0.00  0.00    +0.000 OA
ATOM     32  N   UNL     1     -45.701 -14.318 -27.353  0.00  0.00    +0.000 NA
ENDBRANCH  19  32
ENDBRANCH  18  19
ENDBRANCH   3  18
TORSDOF 9
ENDMDL
