MODEL 1
REMARK VINA RESULT:      -6.2      0.000      0.000
REMARK  Name = ZINC000096181546
REMARK  2 active torsions:
REMARK  status: ('A' for Active; 'I' for Inactive)
REMARK    1  A    between atoms: C_5  and  C_6
REMARK    2  A    between atoms: C_10  and  C_11
REMARK                            x       y       z     vdW  Elec       q    Type
REMARK                         _______ _______ _______ _____ _____    ______ ____
ROOT
ATOM      1  C   UNL     1     -45.501  -4.184 -30.456  0.00  0.00    +0.000 C 
ATOM      2  C   UNL     1     -47.495  -4.273 -31.631  0.00  0.00    +0.000 C 
ATOM      3  C   UNL     1     -46.785  -4.622 -32.898  0.00  0.00    +0.000 C 
ATOM      4  C   UNL     1     -44.695  -5.462 -33.995  0.00  0.00    +0.000 C 
ATOM      5  C   UNL     1     -44.599  -4.487 -31.670  0.00  0.00    +0.000 C 
ATOM      6  N   UNL     1     -45.378  -4.878 -32.849  0.00  0.00    +0.000 N 
ATOM      7  O   UNL     1     -46.678  -3.473 -30.803  0.00  0.00    +0.000 OA
ATOM      8  O   UNL     1     -47.425  -4.706 -33.979  0.00  0.00    +0.000 OA
ENDROOT
BRANCH   1  13
ATOM      9  C   UNL     1     -47.224  -7.782 -24.142  0.00  0.00    +0.000 C 
ATOM     10  C   UNL     1     -46.852  -7.371 -25.520  0.00  0.00    +0.000 A 
ATOM     11  C   UNL     1     -46.736  -6.067 -25.962  0.00  0.00    +0.000 A 
ATOM     12  C   UNL     1     -46.378  -6.262 -27.283  0.00  0.00    +0.000 A 
ATOM     13  C   UNL     1     -45.758  -5.378 -29.583  0.00  0.00    +0.000 C 
ATOM     14  N   UNL     1     -46.130  -5.201 -28.210  0.00  0.00    +0.000 NA
ATOM     15  N   UNL     1     -46.293  -7.572 -27.584  0.00  0.00    +0.000 NA
ATOM     16  O   UNL     1     -45.612  -6.532 -30.067  0.00  0.00    +0.000 OA
ATOM     17  O   UNL     1     -46.587  -8.210 -26.492  0.00  0.00    +0.000 OA
ENDBRANCH   1  13
BRANCH   5  18
ATOM     18  C   UNL     1     -43.716  -3.315 -31.979  0.00  0.00    +0.000 A 
ATOM     19  C   UNL     1     -44.234  -2.012 -32.045  0.00  0.00    +0.000 A 
ATOM     20  C   UNL     1     -43.393  -0.937 -32.342  0.00  0.00    +0.000 A 
ATOM     21  C   UNL     1     -42.032  -1.157 -32.574  0.00  0.00    +0.000 A 
ATOM     22  C   UNL     1     -41.137  -0.014 -32.890  0.00  0.00    +0.000 C 
ATOM     23  C   UNL     1     -41.513  -2.453 -32.512  0.00  0.00    +0.000 A 
ATOM     24  C   UNL     1     -42.355  -3.531 -32.215  0.00  0.00    +0.000 A 
ENDBRANCH   5  18
TORSDOF 2
ENDMDL
MODEL 2
REMARK VINA RESULT:      -6.1      9.753     15.285
REMARK  Name = ZINC000096181546
REMARK  2 active torsions:
REMARK  status: ('A' for Active; 'I' for Inactive)
REMARK    1  A    between atoms: C_5  and  C_6
REMARK    2  A    between atoms: C_10  and  C_11
REMARK                            x       y       z     vdW  Elec       q    Type
REMARK                         _______ _______ _______ _____ _____    ______ ____
ROOT
ATOM      1  C   UNL     1     -44.399 -16.342 -23.678  0.00  0.00    +0.000 C 
ATOM      2  C   UNL     1     -42.629 -16.767 -25.110  0.00  0.00    +0.000 C 
ATOM      3  C   UNL     1     -42.986 -18.215 -25.194  0.00  0.00    +0.000 C 
ATOM      4  C   UNL     1     -44.710 -19.998 -24.837  0.00  0.00    +0.000 C 
ATOM      5  C   UNL     1     -44.885 -17.804 -23.604  0.00  0.00    +0.000 C 
ATOM      6  N   UNL     1     -44.194 -18.662 -24.572  0.00  0.00    +0.000 N 
ATOM      7  O   UNL     1     -42.996 -16.232 -23.856  0.00  0.00    +0.000 OA
ATOM      8  O   UNL     1     -42.241 -19.014 -25.820  0.00  0.00    +0.000 OA
ENDROOT
BRANCH   1  13
ATOM      9  C   UNL     1     -46.824  -9.975 -26.738  0.00  0.00    +0.000 C 
ATOM     10  C   UNL     1     -46.545 -11.381 -26.348  0.00  0.00    +0.000 A 
ATOM     11  C   UNL     1     -45.660 -11.778 -25.363  0.00  0.00    +0.000 A 
ATOM     12  C   UNL     1     -45.792 -13.153 -25.422  0.00  0.00    +0.000 A 
ATOM     13  C   UNL     1     -45.192 -15.489 -24.626  0.00  0.00    +0.000 C 
ATOM     14  N   UNL     1     -45.073 -14.062 -24.583  0.00  0.00    +0.000 NA
ATOM     15  N   UNL     1     -46.679 -13.525 -26.363  0.00  0.00    +0.000 NA
ATOM     16  O   UNL     1     -45.982 -16.047 -25.434  0.00  0.00    +0.000 OA
ATOM     17  O   UNL     1     -47.113 -12.426 -26.901  0.00  0.00    +0.000 OA
ENDBRANCH   1  13
BRANCH   5  18
ATOM     18  C   UNL     1     -44.737 -18.342 -22.212  0.00  0.00    +0.000 A 
ATOM     19  C   UNL     1     -43.497 -18.797 -21.738  0.00  0.00    +0.000 A 
ATOM     20  C   UNL     1     -43.385 -19.301 -20.439  0.00  0.00    +0.000 A 
ATOM     21  C   UNL     1     -44.509 -19.354 -19.611  0.00  0.00    +0.000 A 
ATOM     22  C   UNL     1     -44.390 -19.890 -18.230  0.00  0.00    +0.000 C 
ATOM     23  C   UNL     1     -45.746 -18.903 -20.080  0.00  0.00    +0.000 A 
ATOM     24  C   UNL     1     -45.859 -18.399 -21.380  0.00  0.00    +0.000 A 
ENDBRANCH   5  18
TORSDOF 2
ENDMDL
MODEL 3
REMARK VINA RESULT:      -6.1      1.825      2.030
REMARK  Name = ZINC000096181546
REMARK  2 active torsions:
REMARK  status: ('A' for Active; 'I' for Inactive)
REMARK    1  A    between atoms: C_5  and  C_6
REMARK    2  A    between atoms: C_10  and  C_11
REMARK                            x       y       z     vdW  Elec       q    Type
REMARK                         _______ _______ _______ _____ _____    ______ ____
ROOT
ATOM      1  C   UNL     1     -45.741  -4.155 -30.607  0.00  0.00    +0.000 C 
ATOM      2  C   UNL     1     -47.612  -4.257 -31.968  0.00  0.00    +0.000 C 
ATOM      3  C   UNL     1     -46.787  -4.661 -33.146  0.00  0.00    +0.000 C 
ATOM      4  C   UNL     1     -44.614  -5.569 -34.003  0.00  0.00    +0.000 C 
ATOM      5  C   UNL     1     -44.730  -4.513 -31.715  0.00  0.00    +0.000 C 
ATOM      6  N   UNL     1     -45.396  -4.935 -32.951  0.00  0.00    +0.000 N 
ATOM      7  O   UNL     1     -46.866  -3.439 -31.091  0.00  0.00    +0.000 OA
ATOM      8  O   UNL     1     -47.320  -4.775 -34.282  0.00  0.00    +0.000 OA
ENDROOT
BRANCH   1  13
ATOM      9  C   UNL     1     -46.419 -11.347 -28.710  0.00  0.00    +0.000 C 
ATOM     10  C   UNL     1     -46.420  -9.864 -28.792  0.00  0.00    +0.000 A 
ATOM     11  C   UNL     1     -45.938  -9.120 -29.852  0.00  0.00    +0.000 A 
ATOM     12  C   UNL     1     -46.182  -7.833 -29.411  0.00  0.00    +0.000 A 
ATOM     13  C   UNL     1     -46.103  -5.313 -29.722  0.00  0.00    +0.000 C 
ATOM     14  N   UNL     1     -45.860  -6.656 -30.159  0.00  0.00    +0.000 NA
ATOM     15  N   UNL     1     -46.759  -7.829 -28.195  0.00  0.00    +0.000 NA
ATOM     16  O   UNL     1     -46.650  -5.085 -28.610  0.00  0.00    +0.000 OA
ATOM     17  O   UNL     1     -46.887  -9.075 -27.854  0.00  0.00    +0.000 OA
ENDBRANCH   1  13
BRANCH   5  18
ATOM     18  C   UNL     1     -43.801  -3.365 -31.975  0.00  0.00    +0.000 A 
ATOM     19  C   UNL     1     -44.283  -2.053 -32.096  0.00  0.00    +0.000 A 
ATOM     20  C   UNL     1     -43.398  -1.000 -32.346  0.00  0.00    +0.000 A 
ATOM     21  C   UNL     1     -42.030  -1.254 -32.476  0.00  0.00    +0.000 A 
ATOM     22  C   UNL     1     -41.089  -0.135 -32.742  0.00  0.00    +0.000 C 
ATOM     23  C   UNL     1     -41.546  -2.560 -32.358  0.00  0.00    +0.000 A 
ATOM     24  C   UNL     1     -42.431  -3.614 -32.108  0.00  0.00    +0.000 A 
ENDBRANCH   5  18
TORSDOF 2
ENDMDL
