MODEL 1
REMARK VINA RESULT:      -6.0      0.000      0.000
REMARK  Name = ZINC000169781247 ChemDiv-S640-0707 MolPort-044-356-519 PubChem-91923255
REMARK  6 active torsions:
REMARK  status: ('A' for Active; 'I' for Inactive)
REMARK    1  A    between atoms: C_2  and  C_3
REMARK    2  A    between atoms: C_5  and  C_6
REMARK    3  A    between atoms: C_6  and  C_7
REMARK    4  A    between atoms: C_7  and  C_8
REMARK    5  A    between atoms: C_10  and  O_24
REMARK    6  A    between atoms: C_13  and  C_14
REMARK                            x       y       z     vdW  Elec       q    Type
REMARK                         _______ _______ _______ _____ _____    ______ ____
ROOT
ATOM      1  C   UNL     1     -46.690 -13.017 -20.943  0.00  0.00    +0.000 C 
ATOM      2  C   UNL     1     -47.356 -14.025 -20.018  0.00  0.00    +0.000 C 
ATOM      3  C   UNL     1     -46.673 -16.289 -19.115  0.00  0.00    +0.000 C 
ATOM      4  C   UNL     1     -45.343 -15.059 -20.891  0.00  0.00    +0.000 C 
ATOM      5  C   UNL     1     -45.537 -13.747 -21.632  0.00  0.00    +0.000 C 
ATOM      6  N   UNL     1     -46.471 -15.171 -19.988  0.00  0.00    +0.000 N 
ATOM      7  O   UNL     1     -47.756 -16.406 -18.480  0.00  0.00    +0.000 OA
ENDROOT
BRANCH   5   8
ATOM      8  C   UNL     1     -45.879 -14.011 -23.062  0.00  0.00    +0.000 A 
ATOM      9  C   UNL     1     -46.092 -13.857 -25.127  0.00  0.00    +0.000 A 
ATOM     10  C   UNL     1     -46.024 -13.374 -26.530  0.00  0.00    +0.000 C 
ATOM     11  N   UNL     1     -45.592 -13.174 -24.080  0.00  0.00    +0.000 NA
ATOM     12  N   UNL     1     -46.646 -15.032 -24.770  0.00  0.00    +0.000 NA
ATOM     13  O   UNL     1     -46.494 -15.089 -23.481  0.00  0.00    +0.000 OA
ENDBRANCH   5   8
BRANCH   1  15
ATOM     14  C   UNL     1     -44.246 -10.370 -19.491  0.00  0.00    +0.000 C 
ATOM     15  C   UNL     1     -46.168 -11.852 -20.167  0.00  0.00    +0.000 C 
ATOM     16  N   UNL     1     -44.782 -11.510 -20.215  0.00  0.00    +0.000 NA
ATOM     17  O   UNL     1     -46.970 -11.161 -19.485  0.00  0.00    +0.000 OA
ENDBRANCH   1  15
BRANCH   3  18
ATOM     18  C   UNL     1     -45.601 -17.318 -18.936  0.00  0.00    +0.000 C 
BRANCH  18  19
ATOM     19  C   UNL     1     -45.994 -18.639 -19.586  0.00  0.00    +0.000 C 
BRANCH  19  20
ATOM     20  C   UNL     1     -45.167 -18.960 -20.793  0.00  0.00    +0.000 A 
ATOM     21  C   UNL     1     -45.495 -18.611 -22.090  0.00  0.00    +0.000 A 
ATOM     22  C   UNL     1     -44.435 -19.146 -22.796  0.00  0.00    +0.000 A 
ATOM     23  N   UNL     1     -43.555 -19.753 -21.976  0.00  0.00    +0.000 NA
ATOM     24  O   UNL     1     -44.031 -19.619 -20.776  0.00  0.00    +0.000 OA
BRANCH  22  26
ATOM     25  C   UNL     1     -45.083 -19.870 -25.053  0.00  0.00    +0.000 C 
ATOM     26  O   UNL     1     -44.296 -19.072 -24.180  0.00  0.00    +0.000 OA
ENDBRANCH  22  26
ENDBRANCH  19  20
ENDBRANCH  18  19
ENDBRANCH   3  18
TORSDOF 6
ENDMDL
MODEL 2
REMARK VINA RESULT:      -5.7      2.088      7.200
REMARK  Name = ZINC000169781247 ChemDiv-S640-0707 MolPort-044-356-519 PubChem-91923255
REMARK  6 active torsions:
REMARK  status: ('A' for Active; 'I' for Inactive)
REMARK    1  A    between atoms: C_2  and  C_3
REMARK    2  A    between atoms: C_5  and  C_6
REMARK    3  A    between atoms: C_6  and  C_7
REMARK    4  A    between atoms: C_7  and  C_8
REMARK    5  A    between atoms: C_10  and  O_24
REMARK    6  A    between atoms: C_13  and  C_14
REMARK                            x       y       z     vdW  Elec       q    Type
REMARK                         _______ _______ _______ _____ _____    ______ ____
ROOT
ATOM      1  C   UNL     1     -44.992 -18.749 -24.430  0.00  0.00    +0.000 C 
ATOM      2  C   UNL     1     -45.877 -17.590 -24.863  0.00  0.00    +0.000 C 
ATOM      3  C   UNL     1     -45.764 -15.084 -24.531  0.00  0.00    +0.000 C 
ATOM      4  C   UNL     1     -44.188 -16.696 -23.369  0.00  0.00    +0.000 C 
ATOM      5  C   UNL     1     -44.060 -18.210 -23.344  0.00  0.00    +0.000 C 
ATOM      6  N   UNL     1     -45.301 -16.410 -24.253  0.00  0.00    +0.000 N 
ATOM      7  O   UNL     1     -46.836 -14.911 -25.171  0.00  0.00    +0.000 OA
ENDROOT
BRANCH   5   8
ATOM      8  C   UNL     1     -44.470 -18.739 -22.009  0.00  0.00    +0.000 A 
ATOM      9  C   UNL     1     -45.517 -19.147 -20.257  0.00  0.00    +0.000 A 
ATOM     10  C   UNL     1     -46.561 -19.178 -19.200  0.00  0.00    +0.000 C 
ATOM     11  N   UNL     1     -45.628 -18.430 -21.391  0.00  0.00    +0.000 NA
ATOM     12  N   UNL     1     -44.368 -19.846 -20.190  0.00  0.00    +0.000 NA
ATOM     13  O   UNL     1     -43.747 -19.565 -21.295  0.00  0.00    +0.000 OA
ENDBRANCH   5   8
BRANCH   1  15
ATOM     14  C   UNL     1     -41.958 -19.781 -26.626  0.00  0.00    +0.000 C 
ATOM     15  C   UNL     1     -44.193 -19.263 -25.583  0.00  0.00    +0.000 C 
ATOM     16  N   UNL     1     -42.765 -19.266 -25.532  0.00  0.00    +0.000 NA
ATOM     17  O   UNL     1     -44.794 -19.713 -26.594  0.00  0.00    +0.000 OA
ENDBRANCH   1  15
BRANCH   3  18
ATOM     18  C   UNL     1     -44.975 -13.892 -24.081  0.00  0.00    +0.000 C 
BRANCH  18  19
ATOM     19  C   UNL     1     -45.804 -12.999 -23.166  0.00  0.00    +0.000 C 
BRANCH  19  20
ATOM     20  C   UNL     1     -46.054 -13.616 -21.824  0.00  0.00    +0.000 A 
ATOM     21  C   UNL     1     -45.067 -13.970 -20.922  0.00  0.00    +0.000 A 
ATOM     22  C   UNL     1     -45.816 -14.492 -19.886  0.00  0.00    +0.000 A 
ATOM     23  N   UNL     1     -47.134 -14.441 -20.157  0.00  0.00    +0.000 NA
ATOM     24  O   UNL     1     -47.237 -13.906 -21.335  0.00  0.00    +0.000 OA
BRANCH  22  26
ATOM     25  C   UNL     1     -45.725 -14.585 -17.432  0.00  0.00    +0.000 C 
ATOM     26  O   UNL     1     -45.276 -15.010 -18.711  0.00  0.00    +0.000 OA
ENDBRANCH  22  26
ENDBRANCH  19  20
ENDBRANCH  18  19
ENDBRANCH   3  18
TORSDOF 6
ENDMDL
MODEL 3
REMARK VINA RESULT:      -5.7      2.360      5.914
REMARK  Name = ZINC000169781247 ChemDiv-S640-0707 MolPort-044-356-519 PubChem-91923255
REMARK  6 active torsions:
REMARK  status: ('A' for Active; 'I' for Inactive)
REMARK    1  A    between atoms: C_2  and  C_3
REMARK    2  A    between atoms: C_5  and  C_6
REMARK    3  A    between atoms: C_6  and  C_7
REMARK    4  A    between atoms: C_7  and  C_8
REMARK    5  A    between atoms: C_10  and  O_24
REMARK    6  A    between atoms: C_13  and  C_14
REMARK                            x       y       z     vdW  Elec       q    Type
REMARK                         _______ _______ _______ _____ _____    ______ ____
ROOT
ATOM      1  C   UNL     1     -44.516 -14.527 -26.616  0.00  0.00    +0.000 C 
ATOM      2  C   UNL     1     -43.447 -15.605 -26.522  0.00  0.00    +0.000 C 
ATOM      3  C   UNL     1     -43.479 -18.048 -25.859  0.00  0.00    +0.000 C 
ATOM      4  C   UNL     1     -45.491 -16.526 -25.595  0.00  0.00    +0.000 C 
ATOM      5  C   UNL     1     -45.736 -15.050 -25.857  0.00  0.00    +0.000 C 
ATOM      6  N   UNL     1     -44.113 -16.769 -25.974  0.00  0.00    +0.000 N 
ATOM      7  O   UNL     1     -42.237 -18.155 -26.045  0.00  0.00    +0.000 OA
ENDROOT
BRANCH   5   8
ATOM      8  C   UNL     1     -45.887 -14.317 -24.564  0.00  0.00    +0.000 A 
ATOM      9  C   UNL     1     -46.189 -13.841 -22.560  0.00  0.00    +0.000 A 
ATOM     10  C   UNL     1     -46.444 -13.938 -21.100  0.00  0.00    +0.000 C 
ATOM     11  N   UNL     1     -46.165 -14.907 -23.383  0.00  0.00    +0.000 NA
ATOM     12  N   UNL     1     -45.942 -12.680 -23.198  0.00  0.00    +0.000 NA
ATOM     13  O   UNL     1     -45.761 -13.019 -24.439  0.00  0.00    +0.000 OA
ENDBRANCH   5   8
BRANCH   1  15
ATOM     14  C   UNL     1     -46.354 -13.138 -29.744  0.00  0.00    +0.000 C 
ATOM     15  C   UNL     1     -44.874 -14.262 -28.042  0.00  0.00    +0.000 C 
ATOM     16  N   UNL     1     -45.993 -13.435 -28.368  0.00  0.00    +0.000 NA
ATOM     17  O   UNL     1     -44.165 -14.761 -28.955  0.00  0.00    +0.000 OA
ENDBRANCH   1  15
BRANCH   3  18
ATOM     18  C   UNL     1     -44.282 -19.269 -25.533  0.00  0.00    +0.000 C 
BRANCH  18  19
ATOM     19  C   UNL     1     -43.653 -20.050 -24.385  0.00  0.00    +0.000 C 
BRANCH  19  20
ATOM     20  C   UNL     1     -44.111 -19.575 -23.041  0.00  0.00    +0.000 A 
ATOM     21  C   UNL     1     -45.096 -18.628 -22.831  0.00  0.00    +0.000 A 
ATOM     22  C   UNL     1     -45.115 -18.549 -21.453  0.00  0.00    +0.000 A 
ATOM     23  N   UNL     1     -44.218 -19.388 -20.901  0.00  0.00    +0.000 NA
ATOM     24  O   UNL     1     -43.632 -19.989 -21.891  0.00  0.00    +0.000 OA
BRANCH  22  26
ATOM     25  C   UNL     1     -46.235 -17.939 -19.352  0.00  0.00    +0.000 C 
ATOM     26  O   UNL     1     -45.953 -17.707 -20.725  0.00  0.00    +0.000 OA
ENDBRANCH  22  26
ENDBRANCH  19  20
ENDBRANCH  18  19
ENDBRANCH   3  18
TORSDOF 6
ENDMDL
