MODEL 1
REMARK VINA RESULT:      -5.6      0.000      0.000
REMARK  Name = ZINC000006509149 ZINC06509149 PubChem-7987030
REMARK  8 active torsions:
REMARK  status: ('A' for Active; 'I' for Inactive)
REMARK    1  A    between atoms: C_2  and  C_3
REMARK    2  A    between atoms: C_3  and  C_4
REMARK    3  A    between atoms: C_4  and  N_24
REMARK    4  A    between atoms: C_5  and  C_17
REMARK    5  A    between atoms: C_6  and  C_9
REMARK    6  A    between atoms: C_10  and  C_11
REMARK    7  A    between atoms: C_10  and  N_25
REMARK    8  A    between atoms: C_20  and  O_28
REMARK                            x       y       z     vdW  Elec       q    Type
REMARK                         _______ _______ _______ _____ _____    ______ ____
ROOT
ATOM      1  C   UNL     1     -44.180 -17.045 -22.928  0.00  0.00    +0.000 C 
ATOM      2  C   UNL     1     -45.165 -18.164 -22.542  0.00  0.00    +0.000 C 
ATOM      3  C   UNL     1     -45.664 -18.826 -23.833  0.00  0.00    +0.000 C 
ATOM      4  C   UNL     1     -45.025 -18.016 -24.890  0.00  0.00    +0.000 C 
ATOM      5  N   UNL     1     -44.184 -17.003 -24.381  0.00  0.00    +0.000 N 
ATOM      6  O   UNL     1     -45.193 -18.218 -26.121  0.00  0.00    +0.000 OA
ENDROOT
BRANCH   1   7
ATOM      7  C   UNL     1     -44.601 -15.731 -22.346  0.00  0.00    +0.000 A 
ATOM      8  C   UNL     1     -43.656 -14.813 -21.863  0.00  0.00    +0.000 A 
ATOM      9  C   UNL     1     -44.075 -13.596 -21.320  0.00  0.00    +0.000 A 
ATOM     10  C   UNL     1     -45.443 -13.285 -21.253  0.00  0.00    +0.000 A 
ATOM     11  C   UNL     1     -46.380 -14.203 -21.736  0.00  0.00    +0.000 A 
ATOM     12  C   UNL     1     -45.962 -15.421 -22.280  0.00  0.00    +0.000 A 
BRANCH  10  14
ATOM     13  C   UNL     1     -46.965 -12.002 -19.785  0.00  0.00    +0.000 C 
ATOM     14  O   UNL     1     -45.895 -12.076 -20.716  0.00  0.00    +0.000 OA
ENDBRANCH  10  14
ENDBRANCH   1   7
BRANCH   2  15
ATOM     15  C   UNL     1     -44.541 -19.157 -21.606  0.00  0.00    +0.000 C 
ATOM     16  N   UNL     1     -45.075 -19.436 -20.306  0.00  0.00    +0.000 NA
ATOM     17  O   UNL     1     -43.513 -19.775 -21.986  0.00  0.00    +0.000 OA
BRANCH  16  18
ATOM     18  C   UNL     1     -46.249 -18.775 -19.754  0.00  0.00    +0.000 C 
BRANCH  18  19
ATOM     19  C   UNL     1     -45.856 -17.478 -19.141  0.00  0.00    +0.000 A 
ATOM     20  C   UNL     1     -44.503 -17.177 -18.951  0.00  0.00    +0.000 A 
ATOM     21  C   UNL     1     -44.132 -15.951 -18.392  0.00  0.00    +0.000 A 
ATOM     22  C   UNL     1     -45.112 -15.024 -18.026  0.00  0.00    +0.000 A 
ATOM     23  C   UNL     1     -46.464 -15.320 -18.224  0.00  0.00    +0.000 A 
ATOM     24  C   UNL     1     -46.837 -16.547 -18.784  0.00  0.00    +0.000 A 
ATOM     25 CL   UNL     1     -44.647 -13.488 -17.326  0.00  0.00    +0.000 Cl
ENDBRANCH  18  19
ENDBRANCH  16  18
ENDBRANCH   2  15
BRANCH   5  26
ATOM     26  C   UNL     1     -43.346 -16.135 -25.195  0.00  0.00    +0.000 C 
BRANCH  26  27
ATOM     27  C   UNL     1     -44.209 -15.153 -25.971  0.00  0.00    +0.000 C 
BRANCH  27  29
ATOM     28  C   UNL     1     -45.474 -13.149 -25.206  0.00  0.00    +0.000 C 
ATOM     29  C   UNL     1     -44.098 -13.764 -25.372  0.00  0.00    +0.000 C 
ENDBRANCH  27  29
ENDBRANCH  26  27
ENDBRANCH   5  26
TORSDOF 8
ENDMDL
MODEL 2
REMARK VINA RESULT:      -5.3     11.980     16.079
REMARK  Name = ZINC000006509149 ZINC06509149 PubChem-7987030
REMARK  8 active torsions:
REMARK  status: ('A' for Active; 'I' for Inactive)
REMARK    1  A    between atoms: C_2  and  C_3
REMARK    2  A    between atoms: C_3  and  C_4
REMARK    3  A    between atoms: C_4  and  N_24
REMARK    4  A    between atoms: C_5  and  C_17
REMARK    5  A    between atoms: C_6  and  C_9
REMARK    6  A    between atoms: C_10  and  C_11
REMARK    7  A    between atoms: C_10  and  N_25
REMARK    8  A    between atoms: C_20  and  O_28
REMARK                            x       y       z     vdW  Elec       q    Type
REMARK                         _______ _______ _______ _____ _____    ______ ____
ROOT
ATOM      1  C   UNL     1     -45.111  -5.647 -30.491  0.00  0.00    +0.000 C 
ATOM      2  C   UNL     1     -46.318  -5.439 -31.424  0.00  0.00    +0.000 C 
ATOM      3  C   UNL     1     -47.330  -6.560 -31.152  0.00  0.00    +0.000 C 
ATOM      4  C   UNL     1     -46.634  -7.400 -30.157  0.00  0.00    +0.000 C 
ATOM      5  N   UNL     1     -45.374  -6.887 -29.781  0.00  0.00    +0.000 N 
ATOM      6  O   UNL     1     -47.120  -8.457 -29.673  0.00  0.00    +0.000 OA
ENDROOT
BRANCH   1   7
ATOM      7  C   UNL     1     -43.834  -5.728 -31.270  0.00  0.00    +0.000 A 
ATOM      8  C   UNL     1     -42.656  -5.128 -30.800  0.00  0.00    +0.000 A 
ATOM      9  C   UNL     1     -41.480  -5.214 -31.549  0.00  0.00    +0.000 A 
ATOM     10  C   UNL     1     -41.469  -5.899 -32.775  0.00  0.00    +0.000 A 
ATOM     11  C   UNL     1     -42.646  -6.495 -33.238  0.00  0.00    +0.000 A 
ATOM     12  C   UNL     1     -43.824  -6.410 -32.490  0.00  0.00    +0.000 A 
BRANCH  10  14
ATOM     13  C   UNL     1     -40.032  -5.135 -34.636  0.00  0.00    +0.000 C 
ATOM     14  O   UNL     1     -40.309  -6.004 -33.547  0.00  0.00    +0.000 OA
ENDBRANCH  10  14
ENDBRANCH   1   7
BRANCH   2  15
ATOM     15  C   UNL     1     -46.927  -4.078 -31.251  0.00  0.00    +0.000 C 
ATOM     16  N   UNL     1     -46.729  -3.017 -32.193  0.00  0.00    +0.000 NA
ATOM     17  O   UNL     1     -47.650  -3.868 -30.243  0.00  0.00    +0.000 OA
BRANCH  16  18
ATOM     18  C   UNL     1     -45.904  -3.137 -33.387  0.00  0.00    +0.000 C 
BRANCH  18  19
ATOM     19  C   UNL     1     -44.631  -2.392 -33.199  0.00  0.00    +0.000 A 
ATOM     20  C   UNL     1     -43.446  -2.882 -33.758  0.00  0.00    +0.000 A 
ATOM     21  C   UNL     1     -42.252  -2.173 -33.598  0.00  0.00    +0.000 A 
ATOM     22  C   UNL     1     -42.243  -0.973 -32.883  0.00  0.00    +0.000 A 
ATOM     23  C   UNL     1     -43.428  -0.477 -32.331  0.00  0.00    +0.000 A 
ATOM     24  C   UNL     1     -44.624  -1.186 -32.491  0.00  0.00    +0.000 A 
ATOM     25 CL   UNL     1     -40.747  -0.084 -32.683  0.00  0.00    +0.000 Cl
ENDBRANCH  18  19
ENDBRANCH  16  18
ENDBRANCH   2  15
BRANCH   5  26
ATOM     26  C   UNL     1     -44.528  -7.450 -28.738  0.00  0.00    +0.000 C 
BRANCH  26  27
ATOM     27  C   UNL     1     -44.440  -6.490 -27.561  0.00  0.00    +0.000 C 
BRANCH  27  29
ATOM     28  C   UNL     1     -46.524  -5.254 -26.986  0.00  0.00    +0.000 C 
ATOM     29  C   UNL     1     -45.726  -6.522 -26.756  0.00  0.00    +0.000 C 
ENDBRANCH  27  29
ENDBRANCH  26  27
ENDBRANCH   5  26
TORSDOF 8
ENDMDL
MODEL 3
REMARK VINA RESULT:      -5.1      1.926      5.406
REMARK  Name = ZINC000006509149 ZINC06509149 PubChem-7987030
REMARK  8 active torsions:
REMARK  status: ('A' for Active; 'I' for Inactive)
REMARK    1  A    between atoms: C_2  and  C_3
REMARK    2  A    between atoms: C_3  and  C_4
REMARK    3  A    between atoms: C_4  and  N_24
REMARK    4  A    between atoms: C_5  and  C_17
REMARK    5  A    between atoms: C_6  and  C_9
REMARK    6  A    between atoms: C_10  and  C_11
REMARK    7  A    between atoms: C_10  and  N_25
REMARK    8  A    between atoms: C_20  and  O_28
REMARK                            x       y       z     vdW  Elec       q    Type
REMARK                         _______ _______ _______ _____ _____    ______ ____
ROOT
ATOM      1  C   UNL     1     -45.443 -17.387 -22.655  0.00  0.00    +0.000 C 
ATOM      2  C   UNL     1     -44.531 -17.937 -23.766  0.00  0.00    +0.000 C 
ATOM      3  C   UNL     1     -43.766 -19.143 -23.202  0.00  0.00    +0.000 C 
ATOM      4  C   UNL     1     -44.197 -19.178 -21.790  0.00  0.00    +0.000 C 
ATOM      5  N   UNL     1     -45.147 -18.183 -21.475  0.00  0.00    +0.000 N 
ATOM      6  O   UNL     1     -43.779 -20.021 -20.954  0.00  0.00    +0.000 OA
ENDROOT
BRANCH   1   7
ATOM      7  C   UNL     1     -45.180 -15.934 -22.409  0.00  0.00    +0.000 A 
ATOM      8  C   UNL     1     -46.232 -15.014 -22.286  0.00  0.00    +0.000 A 
ATOM      9  C   UNL     1     -45.958 -13.662 -22.064  0.00  0.00    +0.000 A 
ATOM     10  C   UNL     1     -44.631 -13.216 -21.962  0.00  0.00    +0.000 A 
ATOM     11  C   UNL     1     -43.586 -14.137 -22.086  0.00  0.00    +0.000 A 
ATOM     12  C   UNL     1     -43.858 -15.490 -22.308  0.00  0.00    +0.000 A 
BRANCH  10  14
ATOM     13  C   UNL     1     -45.097 -11.039 -20.885  0.00  0.00    +0.000 C 
ATOM     14  O   UNL     1     -44.324 -11.871 -21.739  0.00  0.00    +0.000 OA
ENDBRANCH  10  14
ENDBRANCH   1   7
BRANCH   2  15
ATOM     15  C   UNL     1     -45.308 -18.292 -25.000  0.00  0.00    +0.000 C 
ATOM     16  N   UNL     1     -44.969 -17.790 -26.298  0.00  0.00    +0.000 NA
ATOM     17  O   UNL     1     -46.289 -19.072 -24.887  0.00  0.00    +0.000 OA
BRANCH  16  18
ATOM     18  C   UNL     1     -43.866 -16.874 -26.549  0.00  0.00    +0.000 C 
BRANCH  18  19
ATOM     19  C   UNL     1     -44.275 -15.485 -26.207  0.00  0.00    +0.000 A 
ATOM     20  C   UNL     1     -45.633 -15.158 -26.126  0.00  0.00    +0.000 A 
ATOM     21  C   UNL     1     -46.020 -13.858 -25.788  0.00  0.00    +0.000 A 
ATOM     22  C   UNL     1     -45.050 -12.887 -25.525  0.00  0.00    +0.000 A 
ATOM     23  C   UNL     1     -43.693 -13.215 -25.597  0.00  0.00    +0.000 A 
ATOM     24  C   UNL     1     -43.305 -14.515 -25.936  0.00  0.00    +0.000 A 
ATOM     25 CL   UNL     1     -45.534 -11.258 -25.101  0.00  0.00    +0.000 Cl
ENDBRANCH  18  19
ENDBRANCH  16  18
ENDBRANCH   2  15
BRANCH   5  26
ATOM     26  C   UNL     1     -45.824 -18.060 -20.191  0.00  0.00    +0.000 C 
BRANCH  26  27
ATOM     27  C   UNL     1     -44.917 -17.367 -19.186  0.00  0.00    +0.000 C 
BRANCH  27  29
ATOM     28  C   UNL     1     -47.037 -16.139 -18.740  0.00  0.00    +0.000 C 
ATOM     29  C   UNL     1     -45.523 -16.046 -18.751  0.00  0.00    +0.000 C 
ENDBRANCH  27  29
ENDBRANCH  26  27
ENDBRANCH   5  26
TORSDOF 8
ENDMDL
