MODEL 1
REMARK VINA RESULT:      -6.8      0.000      0.000
REMARK  Name = ZINC000020135762 ZINC20135762 PubChem-92655563
REMARK  6 active torsions:
REMARK  status: ('A' for Active; 'I' for Inactive)
REMARK    1  A    between atoms: C_2  and  O_22
REMARK    2  A    between atoms: C_5  and  C_8
REMARK    3  A    between atoms: C_12  and  C_13
REMARK    4  A    between atoms: C_15  and  O_27
REMARK    5  A    between atoms: C_16  and  O_26
REMARK    6  A    between atoms: C_17  and  O_25
REMARK                            x       y       z     vdW  Elec       q    Type
REMARK                         _______ _______ _______ _____ _____    ______ ____
ROOT
ATOM      1  C   UNL     1     -47.079  -3.864 -31.827  0.00  0.00    +0.000 C 
ATOM      2  C   UNL     1     -47.042  -5.153 -32.660  0.00  0.00    +0.000 C 
ATOM      3  C   UNL     1     -46.117  -6.157 -32.052  0.00  0.00    +0.000 C 
ATOM      4  C   UNL     1     -46.518  -5.155 -29.827  0.00  0.00    +0.000 C 
ATOM      5  C   UNL     1     -47.037  -4.381 -27.447  0.00  0.00    +0.000 C 
ATOM      6  O   UNL     1     -45.533  -7.003 -32.778  0.00  0.00    +0.000 OA
ATOM      7  O   UNL     1     -47.584  -3.311 -27.832  0.00  0.00    +0.000 OA
ATOM      8  N   UNL     1     -45.923  -6.170 -30.639  0.00  0.00    +0.000 NA
ATOM      9  N   UNL     1     -47.078  -4.117 -30.381  0.00  0.00    +0.000 NA
ATOM     10  N   UNL     1     -46.499  -5.308 -28.403  0.00  0.00    +0.000 NA
ENDROOT
BRANCH   1  14
ATOM     11  C   UNL     1     -43.914  -1.136 -32.882  0.00  0.00    +0.000 A 
ATOM     12  C   UNL     1     -44.406  -2.034 -33.834  0.00  0.00    +0.000 A 
ATOM     13  C   UNL     1     -45.431  -2.924 -33.501  0.00  0.00    +0.000 A 
ATOM     14  C   UNL     1     -45.973  -2.926 -32.208  0.00  0.00    +0.000 A 
ATOM     15  C   UNL     1     -45.485  -2.027 -31.255  0.00  0.00    +0.000 A 
ATOM     16  C   UNL     1     -44.460  -1.136 -31.588  0.00  0.00    +0.000 A 
BRANCH  11  18
ATOM     17  C   UNL     1     -41.570  -0.362 -32.724  0.00  0.00    +0.000 C 
ATOM     18  O   UNL     1     -42.888  -0.260 -33.245  0.00  0.00    +0.000 OA
ENDBRANCH  11  18
ENDBRANCH   1  14
BRANCH   5  19
ATOM     19  C   UNL     1     -46.946  -4.681 -26.008  0.00  0.00    +0.000 A 
ATOM     20  C   UNL     1     -47.343  -3.733 -25.060  0.00  0.00    +0.000 A 
ATOM     21  C   UNL     1     -47.260  -4.010 -23.688  0.00  0.00    +0.000 A 
ATOM     22  C   UNL     1     -46.773  -5.252 -23.248  0.00  0.00    +0.000 A 
ATOM     23  C   UNL     1     -46.368  -6.219 -24.204  0.00  0.00    +0.000 A 
ATOM     24  C   UNL     1     -46.462  -5.915 -25.572  0.00  0.00    +0.000 A 
BRANCH  23  26
ATOM     25  C   UNL     1     -44.492  -7.765 -23.714  0.00  0.00    +0.000 C 
ATOM     26  O   UNL     1     -45.879  -7.466 -23.797  0.00  0.00    +0.000 OA
ENDBRANCH  23  26
BRANCH  22  28
ATOM     27  C   UNL     1     -45.547  -5.343 -21.063  0.00  0.00    +0.000 C 
ATOM     28  O   UNL     1     -46.715  -5.468 -21.861  0.00  0.00    +0.000 OA
ENDBRANCH  22  28
BRANCH  21  30
ATOM     29  C   UNL     1     -47.381  -1.674 -22.873  0.00  0.00    +0.000 C 
ATOM     30  O   UNL     1     -47.657  -3.061 -22.739  0.00  0.00    +0.000 OA
ENDBRANCH  21  30
ENDBRANCH   5  19
TORSDOF 6
ENDMDL
MODEL 2
REMARK VINA RESULT:      -6.7      3.325      4.577
REMARK  Name = ZINC000020135762 ZINC20135762 PubChem-92655563
REMARK  6 active torsions:
REMARK  status: ('A' for Active; 'I' for Inactive)
REMARK    1  A    between atoms: C_2  and  O_22
REMARK    2  A    between atoms: C_5  and  C_8
REMARK    3  A    between atoms: C_12  and  C_13
REMARK    4  A    between atoms: C_15  and  O_27
REMARK    5  A    between atoms: C_16  and  O_26
REMARK    6  A    between atoms: C_17  and  O_25
REMARK                            x       y       z     vdW  Elec       q    Type
REMARK                         _______ _______ _______ _____ _____    ______ ____
ROOT
ATOM      1  C   UNL     1     -46.782  -3.738 -32.407  0.00  0.00    +0.000 C 
ATOM      2  C   UNL     1     -47.313  -4.008 -33.823  0.00  0.00    +0.000 C 
ATOM      3  C   UNL     1     -46.896  -5.360 -34.302  0.00  0.00    +0.000 C 
ATOM      4  C   UNL     1     -46.795  -6.142 -31.958  0.00  0.00    +0.000 C 
ATOM      5  C   UNL     1     -46.894  -7.145 -29.610  0.00  0.00    +0.000 C 
ATOM      6  O   UNL     1     -46.741  -5.578 -35.531  0.00  0.00    +0.000 OA
ATOM      7  O   UNL     1     -46.939  -6.017 -29.046  0.00  0.00    +0.000 OA
ATOM      8  N   UNL     1     -46.704  -6.412 -33.359  0.00  0.00    +0.000 NA
ATOM      9  N   UNL     1     -46.867  -4.913 -31.531  0.00  0.00    +0.000 NA
ATOM     10  N   UNL     1     -46.820  -7.241 -31.040  0.00  0.00    +0.000 NA
ENDROOT
BRANCH   1  14
ATOM     11  C   UNL     1     -42.787  -2.128 -32.532  0.00  0.00    +0.000 A 
ATOM     12  C   UNL     1     -43.058  -3.259 -31.756  0.00  0.00    +0.000 A 
ATOM     13  C   UNL     1     -44.352  -3.788 -31.707  0.00  0.00    +0.000 A 
ATOM     14  C   UNL     1     -45.389  -3.187 -32.435  0.00  0.00    +0.000 A 
ATOM     15  C   UNL     1     -45.119  -2.058 -33.215  0.00  0.00    +0.000 A 
ATOM     16  C   UNL     1     -43.826  -1.529 -33.264  0.00  0.00    +0.000 A 
BRANCH  11  18
ATOM     17  C   UNL     1     -41.168  -0.295 -32.165  0.00  0.00    +0.000 C 
ATOM     18  O   UNL     1     -41.485  -1.623 -32.559  0.00  0.00    +0.000 OA
ENDBRANCH  11  18
ENDBRANCH   1  14
BRANCH   5  19
ATOM     19  C   UNL     1     -46.917  -8.372 -28.795  0.00  0.00    +0.000 A 
ATOM     20  C   UNL     1     -47.261  -8.319 -27.442  0.00  0.00    +0.000 A 
ATOM     21  C   UNL     1     -47.285  -9.482 -26.659  0.00  0.00    +0.000 A 
ATOM     22  C   UNL     1     -46.960 -10.723 -27.232  0.00  0.00    +0.000 A 
ATOM     23  C   UNL     1     -46.610 -10.785 -28.605  0.00  0.00    +0.000 A 
ATOM     24  C   UNL     1     -46.595  -9.605 -29.365  0.00  0.00    +0.000 A 
BRANCH  23  26
ATOM     25  C   UNL     1     -44.942 -12.424 -29.432  0.00  0.00    +0.000 C 
ATOM     26  O   UNL     1     -46.282 -12.008 -29.204  0.00  0.00    +0.000 OA
ENDBRANCH  23  26
BRANCH  22  28
ATOM     27  C   UNL     1     -45.885 -12.412 -25.722  0.00  0.00    +0.000 C 
ATOM     28  O   UNL     1     -47.003 -11.851 -26.395  0.00  0.00    +0.000 OA
ENDBRANCH  22  28
BRANCH  21  30
ATOM     29  C   UNL     1     -47.406  -8.280 -24.496  0.00  0.00    +0.000 C 
ATOM     30  O   UNL     1     -47.630  -9.427 -25.303  0.00  0.00    +0.000 OA
ENDBRANCH  21  30
ENDBRANCH   5  19
TORSDOF 6
ENDMDL
MODEL 3
REMARK VINA RESULT:      -6.6      3.462      5.108
REMARK  Name = ZINC000020135762 ZINC20135762 PubChem-92655563
REMARK  6 active torsions:
REMARK  status: ('A' for Active; 'I' for Inactive)
REMARK    1  A    between atoms: C_2  and  O_22
REMARK    2  A    between atoms: C_5  and  C_8
REMARK    3  A    between atoms: C_12  and  C_13
REMARK    4  A    between atoms: C_15  and  O_27
REMARK    5  A    between atoms: C_16  and  O_26
REMARK    6  A    between atoms: C_17  and  O_25
REMARK                            x       y       z     vdW  Elec       q    Type
REMARK                         _______ _______ _______ _____ _____    ______ ____
ROOT
ATOM      1  C   UNL     1     -46.788  -3.915 -32.408  0.00  0.00    +0.000 C 
ATOM      2  C   UNL     1     -47.269  -4.197 -33.839  0.00  0.00    +0.000 C 
ATOM      3  C   UNL     1     -46.808  -5.541 -34.303  0.00  0.00    +0.000 C 
ATOM      4  C   UNL     1     -46.762  -6.318 -31.956  0.00  0.00    +0.000 C 
ATOM      5  C   UNL     1     -46.913  -7.321 -29.610  0.00  0.00    +0.000 C 
ATOM      6  O   UNL     1     -46.610  -5.756 -35.526  0.00  0.00    +0.000 OA
ATOM      7  O   UNL     1     -47.000  -6.194 -29.050  0.00  0.00    +0.000 OA
ATOM      8  N   UNL     1     -46.622  -6.587 -33.352  0.00  0.00    +0.000 NA
ATOM      9  N   UNL     1     -46.874  -5.091 -31.533  0.00  0.00    +0.000 NA
ATOM     10  N   UNL     1     -46.792  -7.417 -31.037  0.00  0.00    +0.000 NA
ENDROOT
BRANCH   1  14
ATOM     11  C   UNL     1     -42.829  -2.214 -32.407  0.00  0.00    +0.000 A 
ATOM     12  C   UNL     1     -43.063  -3.433 -31.764  0.00  0.00    +0.000 A 
ATOM     13  C   UNL     1     -44.344  -3.992 -31.757  0.00  0.00    +0.000 A 
ATOM     14  C   UNL     1     -45.406  -3.334 -32.393  0.00  0.00    +0.000 A 
ATOM     15  C   UNL     1     -45.174  -2.116 -33.040  0.00  0.00    +0.000 A 
ATOM     16  C   UNL     1     -43.892  -1.556 -33.047  0.00  0.00    +0.000 A 
BRANCH  11  18
ATOM     17  C   UNL     1     -41.285  -0.281 -32.399  0.00  0.00    +0.000 C 
ATOM     18  O   UNL     1     -41.538  -1.680 -32.396  0.00  0.00    +0.000 OA
ENDBRANCH  11  18
ENDBRANCH   1  14
BRANCH   5  19
ATOM     19  C   UNL     1     -46.935  -8.547 -28.795  0.00  0.00    +0.000 A 
ATOM     20  C   UNL     1     -46.819  -9.803 -29.398  0.00  0.00    +0.000 A 
ATOM     21  C   UNL     1     -46.838 -10.975 -28.629  0.00  0.00    +0.000 A 
ATOM     22  C   UNL     1     -46.975 -10.900 -27.233  0.00  0.00    +0.000 A 
ATOM     23  C   UNL     1     -47.093  -9.629 -26.613  0.00  0.00    +0.000 A 
ATOM     24  C   UNL     1     -47.070  -8.472 -27.407  0.00  0.00    +0.000 A 
BRANCH  23  26
ATOM     25  C   UNL     1     -46.131  -9.302 -24.350  0.00  0.00    +0.000 C 
ATOM     26  O   UNL     1     -47.231  -9.522 -25.224  0.00  0.00    +0.000 OA
ENDBRANCH  23  26
BRANCH  22  28
ATOM     27  C   UNL     1     -45.855 -12.707 -25.904  0.00  0.00    +0.000 C 
ATOM     28  O   UNL     1     -46.987 -12.110 -26.519  0.00  0.00    +0.000 OA
ENDBRANCH  22  28
BRANCH  21  30
ATOM     29  C   UNL     1     -45.517 -12.696 -29.826  0.00  0.00    +0.000 C 
ATOM     30  O   UNL     1     -46.723 -12.232 -29.234  0.00  0.00    +0.000 OA
ENDBRANCH  21  30
ENDBRANCH   5  19
TORSDOF 6
ENDMDL
