MODEL 1
REMARK VINA RESULT:      -6.8      0.000      0.000
REMARK  Name = ZINC000096182878 ZINC96182878 PubChem-97458170
REMARK  3 active torsions:
REMARK  status: ('A' for Active; 'I' for Inactive)
REMARK    1  A    between atoms: C_6  and  N_21
REMARK    2  A    between atoms: C_8  and  C_9
REMARK    3  A    between atoms: C_10  and  C_14
REMARK                            x       y       z     vdW  Elec       q    Type
REMARK                         _______ _______ _______ _____ _____    ______ ____
ROOT
ATOM      1  C   UNL     1     -45.906  -3.367 -31.253  0.00  0.00    +0.000 C 
ATOM      2  C   UNL     1     -44.596  -3.907 -31.862  0.00  0.00    +0.000 C 
ATOM      3  C   UNL     1     -46.157  -4.972 -33.524  0.00  0.00    +0.000 C 
ATOM      4  C   UNL     1     -47.306  -4.303 -32.845  0.00  0.00    +0.000 C 
ATOM      5  C   UNL     1     -43.746  -5.654 -33.467  0.00  0.00    +0.000 C 
ATOM      6  N   UNL     1     -44.845  -4.844 -32.961  0.00  0.00    +0.000 N 
ATOM      7  O   UNL     1     -46.359  -5.689 -34.540  0.00  0.00    +0.000 OA
ATOM      8  O   UNL     1     -46.900  -3.100 -32.227  0.00  0.00    +0.000 OA
ENDROOT
BRANCH   2   9
ATOM      9  C   UNL     1     -43.721  -2.777 -32.314  0.00  0.00    +0.000 A 
ATOM     10  C   UNL     1     -42.333  -2.896 -32.185  0.00  0.00    +0.000 A 
ATOM     11  C   UNL     1     -41.497  -1.858 -32.607  0.00  0.00    +0.000 A 
ATOM     12  C   UNL     1     -42.046  -0.697 -33.160  0.00  0.00    +0.000 A 
ATOM     13  C   UNL     1     -43.432  -0.574 -33.292  0.00  0.00    +0.000 A 
ATOM     14  C   UNL     1     -44.269  -1.612 -32.871  0.00  0.00    +0.000 A 
ATOM     15  F   UNL     1     -41.236   0.308 -33.567  0.00  0.00    +0.000 F 
ENDBRANCH   2   9
BRANCH   1  16
ATOM     16  C   UNL     1     -46.406  -4.172 -30.088  0.00  0.00    +0.000 C 
ATOM     17  N   UNL     1     -45.627  -5.267 -29.584  0.00  0.00    +0.000 NA
ATOM     18  O   UNL     1     -47.527  -3.889 -29.589  0.00  0.00    +0.000 OA
BRANCH  17  24
ATOM     19  C   UNL     1     -46.441  -6.053 -24.735  0.00  0.00    +0.000 C 
ATOM     20  C   UNL     1     -46.372  -6.549 -26.134  0.00  0.00    +0.000 A 
ATOM     21  C   UNL     1     -46.642  -7.891 -26.414  0.00  0.00    +0.000 A 
ATOM     22  C   UNL     1     -46.576  -8.357 -27.730  0.00  0.00    +0.000 A 
ATOM     23  C   UNL     1     -46.240  -7.480 -28.766  0.00  0.00    +0.000 A 
ATOM     24  C   UNL     1     -45.968  -6.134 -28.494  0.00  0.00    +0.000 A 
ATOM     25  C   UNL     1     -46.036  -5.673 -27.171  0.00  0.00    +0.000 A 
ATOM     26  C   UNL     1     -46.863  -9.784 -28.028  0.00  0.00    +0.000 C 
ENDBRANCH  17  24
ENDBRANCH   1  16
TORSDOF 3
ENDMDL
MODEL 2
REMARK VINA RESULT:      -6.5     10.531     13.382
REMARK  Name = ZINC000096182878 ZINC96182878 PubChem-97458170
REMARK  3 active torsions:
REMARK  status: ('A' for Active; 'I' for Inactive)
REMARK    1  A    between atoms: C_6  and  N_21
REMARK    2  A    between atoms: C_8  and  C_9
REMARK    3  A    between atoms: C_10  and  C_14
REMARK                            x       y       z     vdW  Elec       q    Type
REMARK                         _______ _______ _______ _____ _____    ______ ____
ROOT
ATOM      1  C   UNL     1     -45.117 -16.548 -25.626  0.00  0.00    +0.000 C 
ATOM      2  C   UNL     1     -44.724 -15.058 -25.648  0.00  0.00    +0.000 C 
ATOM      3  C   UNL     1     -42.384 -15.978 -25.562  0.00  0.00    +0.000 C 
ATOM      4  C   UNL     1     -42.946 -17.360 -25.620  0.00  0.00    +0.000 C 
ATOM      5  C   UNL     1     -42.772 -13.529 -25.198  0.00  0.00    +0.000 C 
ATOM      6  N   UNL     1     -43.282 -14.865 -25.475  0.00  0.00    +0.000 N 
ATOM      7  O   UNL     1     -41.136 -15.809 -25.526  0.00  0.00    +0.000 OA
ATOM      8  O   UNL     1     -44.185 -17.377 -26.299  0.00  0.00    +0.000 OA
ENDROOT
BRANCH   2   9
ATOM      9  C   UNL     1     -45.199 -14.408 -26.914  0.00  0.00    +0.000 A 
ATOM     10  C   UNL     1     -46.310 -13.559 -26.870  0.00  0.00    +0.000 A 
ATOM     11  C   UNL     1     -46.765 -12.937 -28.036  0.00  0.00    +0.000 A 
ATOM     12  C   UNL     1     -46.110 -13.161 -29.251  0.00  0.00    +0.000 A 
ATOM     13  C   UNL     1     -44.998 -14.006 -29.299  0.00  0.00    +0.000 A 
ATOM     14  C   UNL     1     -44.542 -14.629 -28.134  0.00  0.00    +0.000 A 
ATOM     15  F   UNL     1     -46.553 -12.558 -30.380  0.00  0.00    +0.000 F 
ENDBRANCH   2   9
BRANCH   1  16
ATOM     16  C   UNL     1     -45.493 -17.052 -24.261  0.00  0.00    +0.000 C 
ATOM     17  N   UNL     1     -45.332 -16.205 -23.114  0.00  0.00    +0.000 NA
ATOM     18  O   UNL     1     -45.917 -18.231 -24.143  0.00  0.00    +0.000 OA
BRANCH  17  24
ATOM     19  C   UNL     1     -45.721 -19.531 -19.429  0.00  0.00    +0.000 C 
ATOM     20  C   UNL     1     -45.830 -18.138 -19.933  0.00  0.00    +0.000 A 
ATOM     21  C   UNL     1     -46.234 -17.113 -19.073  0.00  0.00    +0.000 A 
ATOM     22  C   UNL     1     -46.337 -15.803 -19.548  0.00  0.00    +0.000 A 
ATOM     23  C   UNL     1     -46.036 -15.518 -20.884  0.00  0.00    +0.000 A 
ATOM     24  C   UNL     1     -45.631 -16.538 -21.752  0.00  0.00    +0.000 A 
ATOM     25  C   UNL     1     -45.529 -17.851 -21.268  0.00  0.00    +0.000 A 
ATOM     26  C   UNL     1     -46.766 -14.713 -18.634  0.00  0.00    +0.000 C 
ENDBRANCH  17  24
ENDBRANCH   1  16
TORSDOF 3
ENDMDL
MODEL 3
REMARK VINA RESULT:      -6.5      6.850      9.947
REMARK  Name = ZINC000096182878 ZINC96182878 PubChem-97458170
REMARK  3 active torsions:
REMARK  status: ('A' for Active; 'I' for Inactive)
REMARK    1  A    between atoms: C_6  and  N_21
REMARK    2  A    between atoms: C_8  and  C_9
REMARK    3  A    between atoms: C_10  and  C_14
REMARK                            x       y       z     vdW  Elec       q    Type
REMARK                         _______ _______ _______ _____ _____    ______ ____
ROOT
ATOM      1  C   UNL     1     -46.151 -12.105 -26.284  0.00  0.00    +0.000 C 
ATOM      2  C   UNL     1     -45.090 -11.256 -27.011  0.00  0.00    +0.000 C 
ATOM      3  C   UNL     1     -46.018 -12.384 -29.059  0.00  0.00    +0.000 C 
ATOM      4  C   UNL     1     -47.029 -13.070 -28.200  0.00  0.00    +0.000 C 
ATOM      5  C   UNL     1     -43.888 -11.074 -29.219  0.00  0.00    +0.000 C 
ATOM      6  N   UNL     1     -45.011 -11.576 -28.439  0.00  0.00    +0.000 N 
ATOM      7  O   UNL     1     -46.021 -12.574 -30.305  0.00  0.00    +0.000 OA
ATOM      8  O   UNL     1     -47.326 -12.302 -27.053  0.00  0.00    +0.000 OA
ENDROOT
BRANCH   2   9
ATOM      9  C   UNL     1     -45.357  -9.794 -26.808  0.00  0.00    +0.000 A 
ATOM     10  C   UNL     1     -44.572  -9.077 -25.899  0.00  0.00    +0.000 A 
ATOM     11  C   UNL     1     -44.799  -7.712 -25.699  0.00  0.00    +0.000 A 
ATOM     12  C   UNL     1     -45.811  -7.059 -26.409  0.00  0.00    +0.000 A 
ATOM     13  C   UNL     1     -46.597  -7.771 -27.319  0.00  0.00    +0.000 A 
ATOM     14  C   UNL     1     -46.371  -9.136 -27.520  0.00  0.00    +0.000 A 
ATOM     15  F   UNL     1     -46.030  -5.737 -26.214  0.00  0.00    +0.000 F 
ENDBRANCH   2   9
BRANCH   1  16
ATOM     16  C   UNL     1     -45.605 -13.371 -25.688  0.00  0.00    +0.000 C 
ATOM     17  N   UNL     1     -46.455 -14.219 -24.901  0.00  0.00    +0.000 NA
ATOM     18  O   UNL     1     -44.391 -13.653 -25.865  0.00  0.00    +0.000 OA
BRANCH  17  24
ATOM     19  C   UNL     1     -45.586 -19.120 -25.042  0.00  0.00    +0.000 C 
ATOM     20  C   UNL     1     -45.654 -17.837 -24.295  0.00  0.00    +0.000 A 
ATOM     21  C   UNL     1     -45.355 -17.807 -22.930  0.00  0.00    +0.000 A 
ATOM     22  C   UNL     1     -45.420 -16.600 -22.228  0.00  0.00    +0.000 A 
ATOM     23  C   UNL     1     -45.784 -15.424 -22.891  0.00  0.00    +0.000 A 
ATOM     24  C   UNL     1     -46.086 -15.446 -24.257  0.00  0.00    +0.000 A 
ATOM     25  C   UNL     1     -46.018 -16.661 -24.957  0.00  0.00    +0.000 A 
ATOM     26  C   UNL     1     -45.103 -16.567 -20.777  0.00  0.00    +0.000 C 
ENDBRANCH  17  24
ENDBRANCH   1  16
TORSDOF 3
ENDMDL
