MODEL 1
REMARK VINA RESULT:      -7.4      0.000      0.000
REMARK  Name = ZINC000096181381 ZINC96181381 PubChem-97457251
REMARK  4 active torsions:
REMARK  status: ('A' for Active; 'I' for Inactive)
REMARK    1  A    between atoms: C_5  and  C_8
REMARK    2  A    between atoms: C_9  and  C_13
REMARK    3  A    between atoms: C_14  and  C_15
REMARK    4  A    between atoms: C_14  and  N_24
REMARK                            x       y       z     vdW  Elec       q    Type
REMARK                         _______ _______ _______ _____ _____    ______ ____
ROOT
ATOM      1  C   UNL     1     -47.000  -5.752 -26.531  0.00  0.00    +0.000 C 
ATOM      2  C   UNL     1     -45.883  -5.482 -27.557  0.00  0.00    +0.000 C 
ATOM      3  C   UNL     1     -44.917  -6.673 -27.521  0.00  0.00    +0.000 C 
ATOM      4  C   UNL     1     -45.478  -7.531 -26.459  0.00  0.00    +0.000 C 
ATOM      5  C   UNL     1     -47.540  -7.737 -24.999  0.00  0.00    +0.000 C 
ATOM      6  O   UNL     1     -44.979  -8.635 -26.116  0.00  0.00    +0.000 OA
ATOM      7  N   UNL     1     -46.647  -6.996 -25.875  0.00  0.00    +0.000 N 
ENDROOT
BRANCH   1  12
ATOM      8  C   UNL     1     -47.380  -1.364 -22.781  0.00  0.00    +0.000 C 
ATOM      9  C   UNL     1     -47.283  -2.496 -23.738  0.00  0.00    +0.000 A 
ATOM     10  C   UNL     1     -47.055  -3.791 -23.266  0.00  0.00    +0.000 A 
ATOM     11  C   UNL     1     -46.963  -4.857 -24.165  0.00  0.00    +0.000 A 
ATOM     12  C   UNL     1     -47.101  -4.629 -25.544  0.00  0.00    +0.000 A 
ATOM     13  C   UNL     1     -47.328  -3.331 -26.011  0.00  0.00    +0.000 A 
ATOM     14  C   UNL     1     -47.419  -2.265 -25.109  0.00  0.00    +0.000 A 
ENDBRANCH   1  12
BRANCH   2  15
ATOM     15  C   UNL     1     -46.458  -5.308 -28.924  0.00  0.00    +0.000 C 
ATOM     16  O   UNL     1     -46.922  -6.310 -29.530  0.00  0.00    +0.000 OA
ATOM     17  N   UNL     1     -46.475  -4.017 -29.538  0.00  0.00    +0.000 NA
BRANCH  17  18
ATOM     18  C   UNL     1     -47.019  -3.804 -30.869  0.00  0.00    +0.000 C 
BRANCH  18  19
ATOM     19  C   UNL     1     -46.087  -2.956 -31.661  0.00  0.00    +0.000 A 
ATOM     20  C   UNL     1     -45.357  -1.941 -31.033  0.00  0.00    +0.000 A 
ATOM     21  C   UNL     1     -44.501  -1.129 -31.782  0.00  0.00    +0.000 A 
ATOM     22  C   UNL     1     -44.376  -1.328 -33.161  0.00  0.00    +0.000 A 
ATOM     23  C   UNL     1     -45.111  -2.337 -33.791  0.00  0.00    +0.000 A 
ATOM     24  C   UNL     1     -45.968  -3.149 -33.042  0.00  0.00    +0.000 A 
ENDBRANCH  18  19
ENDBRANCH  17  18
ENDBRANCH   2  15
TORSDOF 4
ENDMDL
MODEL 2
REMARK VINA RESULT:      -6.9      9.878     14.289
REMARK  Name = ZINC000096181381 ZINC96181381 PubChem-97457251
REMARK  4 active torsions:
REMARK  status: ('A' for Active; 'I' for Inactive)
REMARK    1  A    between atoms: C_5  and  C_8
REMARK    2  A    between atoms: C_9  and  C_13
REMARK    3  A    between atoms: C_14  and  C_15
REMARK    4  A    between atoms: C_14  and  N_24
REMARK                            x       y       z     vdW  Elec       q    Type
REMARK                         _______ _______ _______ _____ _____    ______ ____
ROOT
ATOM      1  C   UNL     1     -43.993 -16.575 -25.793  0.00  0.00    +0.000 C 
ATOM      2  C   UNL     1     -44.617 -17.936 -26.153  0.00  0.00    +0.000 C 
ATOM      3  C   UNL     1     -43.504 -18.823 -26.727  0.00  0.00    +0.000 C 
ATOM      4  C   UNL     1     -42.327 -17.933 -26.723  0.00  0.00    +0.000 C 
ATOM      5  C   UNL     1     -41.598 -15.662 -25.866  0.00  0.00    +0.000 C 
ATOM      6  O   UNL     1     -41.184 -18.285 -27.114  0.00  0.00    +0.000 OA
ATOM      7  N   UNL     1     -42.609 -16.645 -26.218  0.00  0.00    +0.000 N 
ENDROOT
BRANCH   1  12
ATOM      8  C   UNL     1     -46.839 -12.261 -28.392  0.00  0.00    +0.000 C 
ATOM      9  C   UNL     1     -46.102 -13.369 -27.731  0.00  0.00    +0.000 A 
ATOM     10  C   UNL     1     -45.191 -14.136 -28.462  0.00  0.00    +0.000 A 
ATOM     11  C   UNL     1     -44.499 -15.179 -27.841  0.00  0.00    +0.000 A 
ATOM     12  C   UNL     1     -44.717 -15.458 -26.482  0.00  0.00    +0.000 A 
ATOM     13  C   UNL     1     -45.631 -14.689 -25.756  0.00  0.00    +0.000 A 
ATOM     14  C   UNL     1     -46.324 -13.645 -26.379  0.00  0.00    +0.000 A 
ENDBRANCH   1  12
BRANCH   2  15
ATOM     15  C   UNL     1     -45.228 -18.569 -24.946  0.00  0.00    +0.000 C 
ATOM     16  O   UNL     1     -46.240 -19.307 -25.082  0.00  0.00    +0.000 OA
ATOM     17  N   UNL     1     -44.669 -18.335 -23.651  0.00  0.00    +0.000 NA
BRANCH  17  18
ATOM     18  C   UNL     1     -45.234 -18.926 -22.449  0.00  0.00    +0.000 C 
BRANCH  18  19
ATOM     19  C   UNL     1     -45.576 -17.854 -21.477  0.00  0.00    +0.000 A 
ATOM     20  C   UNL     1     -46.051 -18.186 -20.204  0.00  0.00    +0.000 A 
ATOM     21  C   UNL     1     -46.395 -17.177 -19.300  0.00  0.00    +0.000 A 
ATOM     22  C   UNL     1     -46.269 -15.834 -19.669  0.00  0.00    +0.000 A 
ATOM     23  C   UNL     1     -45.801 -15.500 -20.943  0.00  0.00    +0.000 A 
ATOM     24  C   UNL     1     -45.457 -16.509 -21.848  0.00  0.00    +0.000 A 
ENDBRANCH  18  19
ENDBRANCH  17  18
ENDBRANCH   2  15
TORSDOF 4
ENDMDL
MODEL 3
REMARK VINA RESULT:      -6.9      3.486      7.741
REMARK  Name = ZINC000096181381 ZINC96181381 PubChem-97457251
REMARK  4 active torsions:
REMARK  status: ('A' for Active; 'I' for Inactive)
REMARK    1  A    between atoms: C_5  and  C_8
REMARK    2  A    between atoms: C_9  and  C_13
REMARK    3  A    between atoms: C_14  and  C_15
REMARK    4  A    between atoms: C_14  and  N_24
REMARK                            x       y       z     vdW  Elec       q    Type
REMARK                         _______ _______ _______ _____ _____    ______ ____
ROOT
ATOM      1  C   UNL     1     -44.961  -4.252 -32.442  0.00  0.00    +0.000 C 
ATOM      2  C   UNL     1     -46.328  -3.733 -31.956  0.00  0.00    +0.000 C 
ATOM      3  C   UNL     1     -47.386  -4.179 -32.975  0.00  0.00    +0.000 C 
ATOM      4  C   UNL     1     -46.590  -4.870 -34.008  0.00  0.00    +0.000 C 
ATOM      5  C   UNL     1     -44.235  -5.711 -34.422  0.00  0.00    +0.000 C 
ATOM      6  O   UNL     1     -47.089  -5.404 -35.033  0.00  0.00    +0.000 OA
ATOM      7  N   UNL     1     -45.208  -4.889 -33.721  0.00  0.00    +0.000 N 
ENDROOT
BRANCH   1  12
ATOM      8  C   UNL     1     -41.128   0.055 -32.915  0.00  0.00    +0.000 C 
ATOM      9  C   UNL     1     -42.118  -1.047 -32.799  0.00  0.00    +0.000 A 
ATOM     10  C   UNL     1     -43.446  -0.836 -33.178  0.00  0.00    +0.000 A 
ATOM     11  C   UNL     1     -44.378  -1.871 -33.068  0.00  0.00    +0.000 A 
ATOM     12  C   UNL     1     -43.981  -3.126 -32.577  0.00  0.00    +0.000 A 
ATOM     13  C   UNL     1     -42.652  -3.331 -32.197  0.00  0.00    +0.000 A 
ATOM     14  C   UNL     1     -41.721  -2.293 -32.307  0.00  0.00    +0.000 A 
ENDBRANCH   1  12
BRANCH   2  15
ATOM     15  C   UNL     1     -46.642  -4.272 -30.599  0.00  0.00    +0.000 C 
ATOM     16  O   UNL     1     -47.320  -3.574 -29.801  0.00  0.00    +0.000 OA
ATOM     17  N   UNL     1     -46.171  -5.565 -30.213  0.00  0.00    +0.000 NA
BRANCH  17  18
ATOM     18  C   UNL     1     -46.448  -6.127 -28.901  0.00  0.00    +0.000 C 
BRANCH  18  19
ATOM     19  C   UNL     1     -45.169  -6.382 -28.186  0.00  0.00    +0.000 A 
ATOM     20  C   UNL     1     -43.948  -6.118 -28.816  0.00  0.00    +0.000 A 
ATOM     21  C   UNL     1     -42.746  -6.382 -28.153  0.00  0.00    +0.000 A 
ATOM     22  C   UNL     1     -42.764  -6.914 -26.859  0.00  0.00    +0.000 A 
ATOM     23  C   UNL     1     -43.983  -7.185 -26.231  0.00  0.00    +0.000 A 
ATOM     24  C   UNL     1     -45.185  -6.922 -26.894  0.00  0.00    +0.000 A 
ENDBRANCH  18  19
ENDBRANCH  17  18
ENDBRANCH   2  15
TORSDOF 4
ENDMDL
