MODEL 1
REMARK VINA RESULT:      -6.0      0.000      0.000
REMARK  Name = ZINC000181041974 MolPort-044-576-750 PubChem-132290894
REMARK  3 active torsions:
REMARK  status: ('A' for Active; 'I' for Inactive)
REMARK    1  A    between atoms: C_9  and  C_10
REMARK    2  A    between atoms: C_10  and  O_23
REMARK    3  A    between atoms: C_11  and  O_23
REMARK                            x       y       z     vdW  Elec       q    Type
REMARK                         _______ _______ _______ _____ _____    ______ ____
ROOT
ATOM      1  C   UNL     1     -42.119  -2.267 -33.388  0.00  0.00    +0.000 C 
ATOM      2  C   UNL     1     -43.508  -2.626 -32.986  0.00  0.00    +0.000 A 
ATOM      3  C   UNL     1     -43.751  -3.584 -31.991  0.00  0.00    +0.000 A 
ATOM      4  C   UNL     1     -45.078  -3.887 -31.635  0.00  0.00    +0.000 A 
ATOM      5  C   UNL     1     -45.885  -2.330 -33.245  0.00  0.00    +0.000 A 
ATOM      6  C   UNL     1     -44.581  -1.998 -33.617  0.00  0.00    +0.000 A 
ATOM      7  C   UNL     1     -44.311  -5.861 -30.271  0.00  0.00    +0.000 C 
ATOM      8  C   UNL     1     -42.928  -5.300 -30.401  0.00  0.00    +0.000 C 
ATOM      9  C   UNL     1     -46.612  -4.940 -29.929  0.00  0.00    +0.000 C 
ATOM     10  N   UNL     1     -46.103  -3.255 -32.274  0.00  0.00    +0.000 NA
ATOM     11  N   UNL     1     -45.335  -4.860 -30.597  0.00  0.00    +0.000 N 
ATOM     12  N   UNL     1     -42.672  -4.238 -31.320  0.00  0.00    +0.000 NA
ATOM     13  O   UNL     1     -41.981  -5.807 -29.747  0.00  0.00    +0.000 OA
ATOM     14  O   UNL     1     -47.463  -4.019 -30.057  0.00  0.00    +0.000 OA
ENDROOT
BRANCH   9  15
ATOM     15  C   UNL     1     -46.933  -6.078 -29.019  0.00  0.00    +0.000 C 
BRANCH  15  16
ATOM     16  O   UNL     1     -47.626  -7.085 -29.746  0.00  0.00    +0.000 OA
BRANCH  16  17
ATOM     17  C   UNL     1     -47.134  -8.387 -29.895  0.00  0.00    +0.000 A 
ATOM     18  C   UNL     1     -46.969  -9.230 -28.783  0.00  0.00    +0.000 A 
ATOM     19  C   UNL     1     -46.478 -10.526 -28.944  0.00  0.00    +0.000 A 
ATOM     20  C   UNL     1     -46.146 -10.993 -30.217  0.00  0.00    +0.000 A 
ATOM     21  C   UNL     1     -46.304 -10.169 -31.334  0.00  0.00    +0.000 A 
ATOM     22  C   UNL     1     -46.799  -8.860 -31.177  0.00  0.00    +0.000 A 
ATOM     23  C   UNL     1     -46.974  -7.970 -32.363  0.00  0.00    +0.000 C 
ATOM     24 CL   UNL     1     -45.872 -10.807 -32.913  0.00  0.00    +0.000 Cl
ENDBRANCH  16  17
ENDBRANCH  15  16
ENDBRANCH   9  15
TORSDOF 3
ENDMDL
MODEL 2
REMARK VINA RESULT:      -5.9      2.924      3.952
REMARK  Name = ZINC000181041974 MolPort-044-576-750 PubChem-132290894
REMARK  3 active torsions:
REMARK  status: ('A' for Active; 'I' for Inactive)
REMARK    1  A    between atoms: C_9  and  C_10
REMARK    2  A    between atoms: C_10  and  O_23
REMARK    3  A    between atoms: C_11  and  O_23
REMARK                            x       y       z     vdW  Elec       q    Type
REMARK                         _______ _______ _______ _____ _____    ______ ____
ROOT
ATOM      1  C   UNL     1     -44.560  -0.141 -31.664  0.00  0.00    +0.000 C 
ATOM      2  C   UNL     1     -44.261  -1.424 -32.360  0.00  0.00    +0.000 A 
ATOM      3  C   UNL     1     -44.982  -2.592 -32.072  0.00  0.00    +0.000 A 
ATOM      4  C   UNL     1     -44.674  -3.780 -32.758  0.00  0.00    +0.000 A 
ATOM      5  C   UNL     1     -42.956  -2.658 -33.966  0.00  0.00    +0.000 A 
ATOM      6  C   UNL     1     -43.241  -1.460 -33.311  0.00  0.00    +0.000 A 
ATOM      7  C   UNL     1     -46.134  -5.114 -31.200  0.00  0.00    +0.000 C 
ATOM      8  C   UNL     1     -46.682  -3.802 -30.731  0.00  0.00    +0.000 C 
ATOM      9  C   UNL     1     -45.430  -6.105 -33.387  0.00  0.00    +0.000 C 
ATOM     10  N   UNL     1     -43.670  -3.779 -33.681  0.00  0.00    +0.000 NA
ATOM     11  N   UNL     1     -45.427  -4.983 -32.480  0.00  0.00    +0.000 N 
ATOM     12  N   UNL     1     -46.039  -2.584 -31.109  0.00  0.00    +0.000 NA
ATOM     13  O   UNL     1     -47.670  -3.775 -29.955  0.00  0.00    +0.000 OA
ATOM     14  O   UNL     1     -44.974  -5.989 -34.556  0.00  0.00    +0.000 OA
ENDROOT
BRANCH   9  15
ATOM     15  C   UNL     1     -46.032  -7.412 -32.990  0.00  0.00    +0.000 C 
BRANCH  15  16
ATOM     16  O   UNL     1     -46.480  -8.100 -34.150  0.00  0.00    +0.000 OA
BRANCH  16  17
ATOM     17  C   UNL     1     -46.276  -9.470 -34.346  0.00  0.00    +0.000 A 
ATOM     18  C   UNL     1     -45.753 -10.277 -33.322  0.00  0.00    +0.000 A 
ATOM     19  C   UNL     1     -45.554 -11.643 -33.528  0.00  0.00    +0.000 A 
ATOM     20  C   UNL     1     -45.876 -12.216 -34.759  0.00  0.00    +0.000 A 
ATOM     21  C   UNL     1     -46.397 -11.429 -35.789  0.00  0.00    +0.000 A 
ATOM     22  C   UNL     1     -46.599 -10.051 -35.586  0.00  0.00    +0.000 A 
ATOM     23  C   UNL     1     -47.158  -9.199 -36.678  0.00  0.00    +0.000 C 
ATOM     24 CL   UNL     1     -46.785 -12.202 -37.319  0.00  0.00    +0.000 Cl
ENDBRANCH  16  17
ENDBRANCH  15  16
ENDBRANCH   9  15
TORSDOF 3
ENDMDL
MODEL 3
REMARK VINA RESULT:      -5.7      6.368      9.745
REMARK  Name = ZINC000181041974 MolPort-044-576-750 PubChem-132290894
REMARK  3 active torsions:
REMARK  status: ('A' for Active; 'I' for Inactive)
REMARK    1  A    between atoms: C_9  and  C_10
REMARK    2  A    between atoms: C_10  and  O_23
REMARK    3  A    between atoms: C_11  and  O_23
REMARK                            x       y       z     vdW  Elec       q    Type
REMARK                         _______ _______ _______ _____ _____    ______ ____
ROOT
ATOM      1  C   UNL     1     -45.937 -14.363 -25.740  0.00  0.00    +0.000 C 
ATOM      2  C   UNL     1     -45.783 -13.068 -25.019  0.00  0.00    +0.000 A 
ATOM      3  C   UNL     1     -45.972 -11.844 -25.676  0.00  0.00    +0.000 A 
ATOM      4  C   UNL     1     -45.826 -10.645 -24.956  0.00  0.00    +0.000 A 
ATOM      5  C   UNL     1     -45.293 -11.872 -22.986  0.00  0.00    +0.000 A 
ATOM      6  C   UNL     1     -45.439 -13.081 -23.667  0.00  0.00    +0.000 A 
ATOM      7  C   UNL     1     -45.915  -9.301 -27.084  0.00  0.00    +0.000 C 
ATOM      8  C   UNL     1     -46.401 -10.552 -27.748  0.00  0.00    +0.000 C 
ATOM      9  C   UNL     1     -46.278  -8.163 -24.886  0.00  0.00    +0.000 C 
ATOM     10  N   UNL     1     -45.488 -10.694 -23.636  0.00  0.00    +0.000 NA
ATOM     11  N   UNL     1     -46.038  -9.380 -25.622  0.00  0.00    +0.000 N 
ATOM     12  N   UNL     1     -46.334 -11.800 -27.058  0.00  0.00    +0.000 NA
ATOM     13  O   UNL     1     -46.809 -10.514 -28.937  0.00  0.00    +0.000 OA
ATOM     14  O   UNL     1     -46.545  -8.198 -23.654  0.00  0.00    +0.000 OA
ENDROOT
BRANCH   9  15
ATOM     15  C   UNL     1     -46.281  -6.837 -25.571  0.00  0.00    +0.000 C 
BRANCH  15  16
ATOM     16  O   UNL     1     -47.342  -6.041 -25.060  0.00  0.00    +0.000 OA
BRANCH  16  17
ATOM     17  C   UNL     1     -47.334  -4.642 -25.110  0.00  0.00    +0.000 A 
ATOM     18  C   UNL     1     -47.461  -3.962 -26.332  0.00  0.00    +0.000 A 
ATOM     19  C   UNL     1     -47.452  -2.566 -26.370  0.00  0.00    +0.000 A 
ATOM     20  C   UNL     1     -47.314  -1.838 -25.188  0.00  0.00    +0.000 A 
ATOM     21  C   UNL     1     -47.186  -2.498 -23.963  0.00  0.00    +0.000 A 
ATOM     22  C   UNL     1     -47.194  -3.906 -23.920  0.00  0.00    +0.000 A 
ATOM     23  C   UNL     1     -47.060  -4.623 -22.616  0.00  0.00    +0.000 C 
ATOM     24 CL   UNL     1     -47.016  -1.533 -22.505  0.00  0.00    +0.000 Cl
ENDBRANCH  16  17
ENDBRANCH  15  16
ENDBRANCH   9  15
TORSDOF 3
ENDMDL
