MODEL 1
REMARK VINA RESULT:      -6.4      0.000      0.000
REMARK  Name = ZINC000223871494 PubChem-100324810
REMARK  5 active torsions:
REMARK  status: ('A' for Active; 'I' for Inactive)
REMARK    1  A    between atoms: C_9  and  C_10
REMARK    2  A    between atoms: C_11  and  C_13
REMARK    3  A    between atoms: C_11  and  N_22
REMARK    4  A    between atoms: C_16  and  S_29
REMARK    5  A    between atoms: N_21  and  S_30
REMARK                            x       y       z     vdW  Elec       q    Type
REMARK                         _______ _______ _______ _____ _____    ______ ____
ROOT
ATOM      1  C   UNL     1     -40.625 -21.552 -16.492  0.00  0.00    +0.000 C 
ATOM      2  C   UNL     1     -41.156 -21.175 -17.828  0.00  0.00    +0.000 A 
ATOM      3  C   UNL     1     -42.269 -20.335 -17.924  0.00  0.00    +0.000 A 
ATOM      4  C   UNL     1     -42.772 -19.983 -19.179  0.00  0.00    +0.000 A 
ATOM      5  C   UNL     1     -42.150 -20.457 -20.347  0.00  0.00    +0.000 A 
ATOM      6  C   UNL     1     -41.038 -21.305 -20.243  0.00  0.00    +0.000 A 
ATOM      7  C   UNL     1     -40.544 -21.663 -18.985  0.00  0.00    +0.000 A 
ATOM      8  C   UNL     1     -43.582 -18.902 -21.680  0.00  0.00    +0.000 C 
ATOM      9  C   UNL     1     -44.580 -18.985 -20.526  0.00  0.00    +0.000 C 
ATOM     10  N   UNL     1     -42.667 -20.041 -21.625  0.00  0.00    +0.000 N 
ATOM     11  O   UNL     1     -43.896 -19.156 -19.282  0.00  0.00    +0.000 OA
ENDROOT
BRANCH  10  15
ATOM     12  C   UNL     1     -40.678 -20.369 -23.672  0.00  0.00    +0.000 C 
ATOM     13  O   UNL     1     -42.243 -22.364 -22.833  0.00  0.00    +0.000 OA
ATOM     14  O   UNL     1     -43.319 -20.593 -24.135  0.00  0.00    +0.000 OA
ATOM     15  S   UNL     1     -42.278 -20.884 -23.091  0.00  0.00    +0.000 S 
ENDBRANCH  10  15
BRANCH   9  16
ATOM     16  C   UNL     1     -45.452 -17.773 -20.500  0.00  0.00    +0.000 C 
ATOM     17  N   UNL     1     -45.136 -16.665 -21.348  0.00  0.00    +0.000 NA
ATOM     18  O   UNL     1     -46.452 -17.722 -19.733  0.00  0.00    +0.000 OA
BRANCH  17  19
ATOM     19  C   UNL     1     -45.909 -15.431 -21.355  0.00  0.00    +0.000 C 
ATOM     20  C   UNL     1     -45.330 -14.438 -20.360  0.00  0.00    +0.000 C 
BRANCH  19  21
ATOM     21  C   UNL     1     -45.934 -14.847 -22.731  0.00  0.00    +0.000 A 
ATOM     22  C   UNL     1     -46.187 -15.683 -23.824  0.00  0.00    +0.000 A 
ATOM     23  C   UNL     1     -46.209 -15.160 -25.119  0.00  0.00    +0.000 A 
ATOM     24  C   UNL     1     -45.978 -13.796 -25.330  0.00  0.00    +0.000 A 
ATOM     25  C   UNL     1     -45.719 -12.958 -24.240  0.00  0.00    +0.000 A 
ATOM     26  C   UNL     1     -45.697 -13.480 -22.944  0.00  0.00    +0.000 A 
BRANCH  24  30
ATOM     27  C   UNL     1     -45.246 -14.306 -28.073  0.00  0.00    +0.000 C 
ATOM     28  O   UNL     1     -45.227 -11.851 -26.992  0.00  0.00    +0.000 OA
ATOM     29  O   UNL     1     -47.410 -12.879 -27.384  0.00  0.00    +0.000 OA
ATOM     30  S   UNL     1     -45.993 -13.143 -26.958  0.00  0.00    +0.000 S 
ENDBRANCH  24  30
ENDBRANCH  19  21
ENDBRANCH  17  19
ENDBRANCH   9  16
TORSDOF 5
ENDMDL
MODEL 2
REMARK VINA RESULT:      -5.8     12.113     16.750
REMARK  Name = ZINC000223871494 PubChem-100324810
REMARK  5 active torsions:
REMARK  status: ('A' for Active; 'I' for Inactive)
REMARK    1  A    between atoms: C_9  and  C_10
REMARK    2  A    between atoms: C_11  and  C_13
REMARK    3  A    between atoms: C_11  and  N_22
REMARK    4  A    between atoms: C_16  and  S_29
REMARK    5  A    between atoms: N_21  and  S_30
REMARK                            x       y       z     vdW  Elec       q    Type
REMARK                         _______ _______ _______ _____ _____    ______ ____
ROOT
ATOM      1  C   UNL     1     -41.326  -7.579 -26.566  0.00  0.00    +0.000 C 
ATOM      2  C   UNL     1     -42.376  -7.542 -27.617  0.00  0.00    +0.000 A 
ATOM      3  C   UNL     1     -42.569  -6.380 -28.370  0.00  0.00    +0.000 A 
ATOM      4  C   UNL     1     -43.559  -6.343 -29.355  0.00  0.00    +0.000 A 
ATOM      5  C   UNL     1     -44.349  -7.479 -29.605  0.00  0.00    +0.000 A 
ATOM      6  C   UNL     1     -44.155  -8.638 -28.841  0.00  0.00    +0.000 A 
ATOM      7  C   UNL     1     -43.170  -8.668 -27.849  0.00  0.00    +0.000 A 
ATOM      8  C   UNL     1     -45.256  -6.338 -31.636  0.00  0.00    +0.000 C 
ATOM      9  C   UNL     1     -44.924  -5.025 -30.929  0.00  0.00    +0.000 C 
ATOM     10  N   UNL     1     -45.332  -7.421 -30.656  0.00  0.00    +0.000 N 
ATOM     11  O   UNL     1     -43.768  -5.178 -30.100  0.00  0.00    +0.000 OA
ENDROOT
BRANCH  10  15
ATOM     12  C   UNL     1     -47.468  -8.671 -29.197  0.00  0.00    +0.000 C 
ATOM     13  O   UNL     1     -47.616  -8.122 -31.806  0.00  0.00    +0.000 OA
ATOM     14  O   UNL     1     -46.088  -9.915 -31.143  0.00  0.00    +0.000 OA
ATOM     15  S   UNL     1     -46.631  -8.566 -30.762  0.00  0.00    +0.000 S 
ENDBRANCH  10  15
BRANCH   9  16
ATOM     16  C   UNL     1     -44.732  -3.928 -31.925  0.00  0.00    +0.000 C 
ATOM     17  N   UNL     1     -43.734  -2.932 -31.684  0.00  0.00    +0.000 NA
ATOM     18  O   UNL     1     -45.447  -3.875 -32.963  0.00  0.00    +0.000 OA
BRANCH  17  19
ATOM     19  C   UNL     1     -43.509  -1.807 -32.582  0.00  0.00    +0.000 C 
ATOM     20  C   UNL     1     -44.381  -0.628 -32.182  0.00  0.00    +0.000 C 
BRANCH  19  21
ATOM     21  C   UNL     1     -42.064  -1.423 -32.574  0.00  0.00    +0.000 A 
ATOM     22  C   UNL     1     -41.705  -0.123 -32.204  0.00  0.00    +0.000 A 
ATOM     23  C   UNL     1     -40.361   0.259 -32.195  0.00  0.00    +0.000 A 
ATOM     24  C   UNL     1     -39.367  -0.657 -32.555  0.00  0.00    +0.000 A 
ATOM     25  C   UNL     1     -39.723  -1.957 -32.931  0.00  0.00    +0.000 A 
ATOM     26  C   UNL     1     -41.067  -2.341 -32.941  0.00  0.00    +0.000 A 
BRANCH  24  30
ATOM     27  C   UNL     1     -37.392   0.976 -33.879  0.00  0.00    +0.000 C 
ATOM     28  O   UNL     1     -36.807  -1.381 -32.738  0.00  0.00    +0.000 OA
ATOM     29  O   UNL     1     -37.342   0.478 -31.244  0.00  0.00    +0.000 OA
ATOM     30  S   UNL     1     -37.682  -0.173 -32.555  0.00  0.00    +0.000 S 
ENDBRANCH  24  30
ENDBRANCH  19  21
ENDBRANCH  17  19
ENDBRANCH   9  16
TORSDOF 5
ENDMDL
MODEL 3
REMARK VINA RESULT:      -5.7      2.735      3.695
REMARK  Name = ZINC000223871494 PubChem-100324810
REMARK  5 active torsions:
REMARK  status: ('A' for Active; 'I' for Inactive)
REMARK    1  A    between atoms: C_9  and  C_10
REMARK    2  A    between atoms: C_11  and  C_13
REMARK    3  A    between atoms: C_11  and  N_22
REMARK    4  A    between atoms: C_16  and  S_29
REMARK    5  A    between atoms: N_21  and  S_30
REMARK                            x       y       z     vdW  Elec       q    Type
REMARK                         _______ _______ _______ _____ _____    ______ ____
ROOT
ATOM      1  C   UNL     1     -40.265 -22.597 -19.917  0.00  0.00    +0.000 C 
ATOM      2  C   UNL     1     -40.523 -22.069 -21.282  0.00  0.00    +0.000 A 
ATOM      3  C   UNL     1     -41.759 -21.491 -21.584  0.00  0.00    +0.000 A 
ATOM      4  C   UNL     1     -42.004 -20.999 -22.869  0.00  0.00    +0.000 A 
ATOM      5  C   UNL     1     -41.004 -21.067 -23.854  0.00  0.00    +0.000 A 
ATOM      6  C   UNL     1     -39.768 -21.654 -23.546  0.00  0.00    +0.000 A 
ATOM      7  C   UNL     1     -39.530 -22.155 -22.262  0.00  0.00    +0.000 A 
ATOM      8  C   UNL     1     -42.417 -19.614 -25.317  0.00  0.00    +0.000 C 
ATOM      9  C   UNL     1     -43.613 -20.156 -24.536  0.00  0.00    +0.000 C 
ATOM     10  N   UNL     1     -41.274 -20.512 -25.155  0.00  0.00    +0.000 N 
ATOM     11  O   UNL     1     -43.245 -20.434 -23.182  0.00  0.00    +0.000 OA
ENDROOT
BRANCH  10  15
ATOM     12  C   UNL     1     -41.143 -20.379 -28.022  0.00  0.00    +0.000 C 
ATOM     13  O   UNL     1     -38.982 -20.230 -26.460  0.00  0.00    +0.000 OA
ATOM     14  O   UNL     1     -40.098 -22.405 -26.591  0.00  0.00    +0.000 OA
ATOM     15  S   UNL     1     -40.316 -20.918 -26.543  0.00  0.00    +0.000 S 
ENDBRANCH  10  15
BRANCH   9  16
ATOM     16  C   UNL     1     -44.756 -19.197 -24.598  0.00  0.00    +0.000 C 
ATOM     17  N   UNL     1     -44.572 -17.858 -24.128  0.00  0.00    +0.000 NA
ATOM     18  O   UNL     1     -45.875 -19.564 -25.051  0.00  0.00    +0.000 OA
BRANCH  17  19
ATOM     19  C   UNL     1     -45.645 -16.872 -24.115  0.00  0.00    +0.000 C 
ATOM     20  C   UNL     1     -45.643 -16.107 -22.801  0.00  0.00    +0.000 C 
BRANCH  19  21
ATOM     21  C   UNL     1     -45.497 -15.937 -25.272  0.00  0.00    +0.000 A 
ATOM     22  C   UNL     1     -44.646 -16.284 -26.327  0.00  0.00    +0.000 A 
ATOM     23  C   UNL     1     -44.489 -15.422 -27.415  0.00  0.00    +0.000 A 
ATOM     24  C   UNL     1     -45.182 -14.207 -27.456  0.00  0.00    +0.000 A 
ATOM     25  C   UNL     1     -46.030 -13.855 -26.401  0.00  0.00    +0.000 A 
ATOM     26  C   UNL     1     -46.188 -14.716 -25.311  0.00  0.00    +0.000 A 
BRANCH  24  30
ATOM     27  C   UNL     1     -45.637 -11.523 -28.412  0.00  0.00    +0.000 C 
ATOM     28  O   UNL     1     -45.692 -13.672 -30.018  0.00  0.00    +0.000 OA
ATOM     29  O   UNL     1     -43.513 -12.990 -29.144  0.00  0.00    +0.000 OA
ATOM     30  S   UNL     1     -44.974 -13.121 -28.818  0.00  0.00    +0.000 S 
ENDBRANCH  24  30
ENDBRANCH  19  21
ENDBRANCH  17  19
ENDBRANCH   9  16
TORSDOF 5
ENDMDL
