MODEL 1
REMARK VINA RESULT:      -6.2      0.000      0.000
REMARK  Name = ZINC000096182866 ZINC96182866 PubChem-97458158
REMARK  2 active torsions:
REMARK  status: ('A' for Active; 'I' for Inactive)
REMARK    1  A    between atoms: C_5  and  C_6
REMARK    2  A    between atoms: C_7  and  C_11
REMARK                            x       y       z     vdW  Elec       q    Type
REMARK                         _______ _______ _______ _____ _____    ______ ____
ROOT
ATOM      1  C   UNL     1     -45.516  -3.855 -30.838  0.00  0.00    +0.000 C 
ATOM      2  C   UNL     1     -44.511  -4.216 -31.951  0.00  0.00    +0.000 C 
ATOM      3  C   UNL     1     -46.596  -4.701 -33.272  0.00  0.00    +0.000 C 
ATOM      4  C   UNL     1     -47.416  -4.234 -32.112  0.00  0.00    +0.000 C 
ATOM      5  C   UNL     1     -44.367  -5.436 -34.151  0.00  0.00    +0.000 C 
ATOM      6  N   UNL     1     -45.173  -4.781 -33.130  0.00  0.00    +0.000 N 
ATOM      7  O   UNL     1     -47.163  -5.080 -34.330  0.00  0.00    +0.000 OA
ATOM      8  O   UNL     1     -46.713  -3.283 -31.341  0.00  0.00    +0.000 OA
ENDROOT
BRANCH   1  13
ATOM      9  C   UNL     1     -44.632 -10.973 -28.824  0.00  0.00    +0.000 C 
ATOM     10  C   UNL     1     -45.197  -9.599 -28.737  0.00  0.00    +0.000 A 
ATOM     11  C   UNL     1     -46.188  -9.229 -27.833  0.00  0.00    +0.000 A 
ATOM     12  C   UNL     1     -45.414  -7.442 -29.310  0.00  0.00    +0.000 A 
ATOM     13  C   UNL     1     -45.750  -4.964 -29.853  0.00  0.00    +0.000 C 
ATOM     14  C   UNL     1     -46.840 -10.112 -26.826  0.00  0.00    +0.000 C 
ATOM     15  S   UNL     1     -46.548  -7.606 -28.068  0.00  0.00    +0.000 S 
ATOM     16  N   UNL     1     -44.772  -8.603 -29.559  0.00  0.00    +0.000 NA
ATOM     17  N   UNL     1     -45.170  -6.257 -30.078  0.00  0.00    +0.000 NA
ATOM     18  O   UNL     1     -46.467  -4.741 -28.844  0.00  0.00    +0.000 OA
ENDBRANCH   1  13
BRANCH   2  19
ATOM     19  C   UNL     1     -43.684  -3.024 -32.326  0.00  0.00    +0.000 A 
ATOM     20  C   UNL     1     -42.288  -3.131 -32.318  0.00  0.00    +0.000 A 
ATOM     21  C   UNL     1     -41.496  -2.036 -32.678  0.00  0.00    +0.000 A 
ATOM     22  C   UNL     1     -42.098  -0.829 -33.051  0.00  0.00    +0.000 A 
ATOM     23  C   UNL     1     -43.492  -0.719 -33.064  0.00  0.00    +0.000 A 
ATOM     24  C   UNL     1     -44.284  -1.813 -32.705  0.00  0.00    +0.000 A 
ATOM     25  F   UNL     1     -41.332   0.231 -33.397  0.00  0.00    +0.000 F 
ENDBRANCH   2  19
TORSDOF 2
ENDMDL
MODEL 2
REMARK VINA RESULT:      -5.9      2.155      2.727
REMARK  Name = ZINC000096182866 ZINC96182866 PubChem-97458158
REMARK  2 active torsions:
REMARK  status: ('A' for Active; 'I' for Inactive)
REMARK    1  A    between atoms: C_5  and  C_6
REMARK    2  A    between atoms: C_7  and  C_11
REMARK                            x       y       z     vdW  Elec       q    Type
REMARK                         _______ _______ _______ _____ _____    ______ ____
ROOT
ATOM      1  C   UNL     1     -46.245  -5.990 -32.323  0.00  0.00    +0.000 C 
ATOM      2  C   UNL     1     -44.787  -5.508 -32.185  0.00  0.00    +0.000 C 
ATOM      3  C   UNL     1     -44.462  -6.816 -34.309  0.00  0.00    +0.000 C 
ATOM      4  C   UNL     1     -45.927  -7.119 -34.324  0.00  0.00    +0.000 C 
ATOM      5  C   UNL     1     -42.466  -5.994 -33.037  0.00  0.00    +0.000 C 
ATOM      6  N   UNL     1     -43.909  -6.111 -33.192  0.00  0.00    +0.000 N 
ATOM      7  O   UNL     1     -43.725  -7.240 -35.237  0.00  0.00    +0.000 OA
ATOM      8  O   UNL     1     -46.663  -6.104 -33.674  0.00  0.00    +0.000 OA
ENDROOT
BRANCH   1  13
ATOM      9  C   UNL     1     -43.940 -11.735 -28.175  0.00  0.00    +0.000 C 
ATOM     10  C   UNL     1     -44.927 -10.920 -28.937  0.00  0.00    +0.000 A 
ATOM     11  C   UNL     1     -46.247 -11.307 -29.145  0.00  0.00    +0.000 A 
ATOM     12  C   UNL     1     -45.628  -9.160 -30.134  0.00  0.00    +0.000 A 
ATOM     13  C   UNL     1     -46.561  -7.202 -31.494  0.00  0.00    +0.000 C 
ATOM     14  C   UNL     1     -46.888 -12.561 -28.661  0.00  0.00    +0.000 C 
ATOM     15  S   UNL     1     -47.015 -10.121 -30.053  0.00  0.00    +0.000 S 
ATOM     16  N   UNL     1     -44.586  -9.727 -29.492  0.00  0.00    +0.000 NA
ATOM     17  N   UNL     1     -45.504  -7.917 -30.838  0.00  0.00    +0.000 NA
ATOM     18  O   UNL     1     -47.756  -7.580 -31.399  0.00  0.00    +0.000 OA
ENDBRANCH   1  13
BRANCH   2  19
ATOM     19  C   UNL     1     -44.715  -4.011 -32.245  0.00  0.00    +0.000 A 
ATOM     20  C   UNL     1     -45.157  -3.262 -31.149  0.00  0.00    +0.000 A 
ATOM     21  C   UNL     1     -45.087  -1.866 -31.177  0.00  0.00    +0.000 A 
ATOM     22  C   UNL     1     -44.572  -1.214 -32.302  0.00  0.00    +0.000 A 
ATOM     23  C   UNL     1     -44.126  -1.958 -33.399  0.00  0.00    +0.000 A 
ATOM     24  C   UNL     1     -44.195  -3.354 -33.371  0.00  0.00    +0.000 A 
ATOM     25  F   UNL     1     -44.505   0.138 -32.330  0.00  0.00    +0.000 F 
ENDBRANCH   2  19
TORSDOF 2
ENDMDL
MODEL 3
REMARK VINA RESULT:      -5.9      6.407      8.914
REMARK  Name = ZINC000096182866 ZINC96182866 PubChem-97458158
REMARK  2 active torsions:
REMARK  status: ('A' for Active; 'I' for Inactive)
REMARK    1  A    between atoms: C_5  and  C_6
REMARK    2  A    between atoms: C_7  and  C_11
REMARK                            x       y       z     vdW  Elec       q    Type
REMARK                         _______ _______ _______ _____ _____    ______ ____
ROOT
ATOM      1  C   UNL     1     -45.744 -10.891 -33.446  0.00  0.00    +0.000 C 
ATOM      2  C   UNL     1     -45.475 -10.727 -34.956  0.00  0.00    +0.000 C 
ATOM      3  C   UNL     1     -43.095 -10.428 -34.200  0.00  0.00    +0.000 C 
ATOM      4  C   UNL     1     -43.528 -10.691 -32.793  0.00  0.00    +0.000 C 
ATOM      5  C   UNL     1     -43.729  -9.877 -36.561  0.00  0.00    +0.000 C 
ATOM      6  N   UNL     1     -44.086 -10.348 -35.230  0.00  0.00    +0.000 N 
ATOM      7  O   UNL     1     -41.880 -10.213 -34.453  0.00  0.00    +0.000 OA
ATOM      8  O   UNL     1     -44.673 -11.517 -32.759  0.00  0.00    +0.000 OA
ENDROOT
BRANCH   1  13
ATOM      9  C   UNL     1     -46.939  -3.539 -33.654  0.00  0.00    +0.000 C 
ATOM     10  C   UNL     1     -46.841  -4.880 -33.015  0.00  0.00    +0.000 A 
ATOM     11  C   UNL     1     -46.992  -5.095 -31.649  0.00  0.00    +0.000 A 
ATOM     12  C   UNL     1     -46.539  -7.101 -32.969  0.00  0.00    +0.000 A 
ATOM     13  C   UNL     1     -46.230  -9.635 -32.780  0.00  0.00    +0.000 C 
ATOM     14  C   UNL     1     -47.269  -4.059 -30.616  0.00  0.00    +0.000 C 
ATOM     15  S   UNL     1     -46.799  -6.735 -31.341  0.00  0.00    +0.000 S 
ATOM     16  N   UNL     1     -46.585  -5.998 -33.746  0.00  0.00    +0.000 NA
ATOM     17  N   UNL     1     -46.239  -8.396 -33.505  0.00  0.00    +0.000 NA
ATOM     18  O   UNL     1     -46.611  -9.689 -31.583  0.00  0.00    +0.000 OA
ENDBRANCH   1  13
BRANCH   2  19
ATOM     19  C   UNL     1     -45.841 -11.977 -35.698  0.00  0.00    +0.000 A 
ATOM     20  C   UNL     1     -46.981 -11.980 -36.510  0.00  0.00    +0.000 A 
ATOM     21  C   UNL     1     -47.335 -13.130 -37.223  0.00  0.00    +0.000 A 
ATOM     22  C   UNL     1     -46.546 -14.281 -37.128  0.00  0.00    +0.000 A 
ATOM     23  C   UNL     1     -45.404 -14.282 -36.321  0.00  0.00    +0.000 A 
ATOM     24  C   UNL     1     -45.050 -13.132 -35.609  0.00  0.00    +0.000 A 
ATOM     25  F   UNL     1     -46.889 -15.395 -37.817  0.00  0.00    +0.000 F 
ENDBRANCH   2  19
TORSDOF 2
ENDMDL
