MODEL 1
REMARK VINA RESULT:      -6.4      0.000      0.000
REMARK  Name = ZINC000030726767 ZINC30726767 PubChem-37870901
REMARK  7 active torsions:
REMARK  status: ('A' for Active; 'I' for Inactive)
REMARK    1  A    between atoms: C_2  and  O_25
REMARK    2  A    between atoms: C_3  and  O_25
REMARK    3  A    between atoms: C_8  and  N_29
REMARK    4  A    between atoms: C_9  and  C_10
REMARK    5  A    between atoms: C_10  and  C_11
REMARK    6  A    between atoms: C_11  and  C_12
REMARK    7  A    between atoms: C_18  and  O_27
REMARK                            x       y       z     vdW  Elec       q    Type
REMARK                         _______ _______ _______ _____ _____    ______ ____
ROOT
ATOM      1  C   UNL     1     -42.853 -17.864 -26.434  0.00  0.00    +0.000 C 
ATOM      2  O   UNL     1     -41.767 -18.478 -26.280  0.00  0.00    +0.000 OA
ATOM      3  N   UNL     1     -42.853 -16.430 -26.398  0.00  0.00    +0.000 NA
ENDROOT
BRANCH   3   9
ATOM      4  C   UNL     1     -44.801 -15.076 -25.756  0.00  0.00    +0.000 A 
ATOM      5  C   UNL     1     -45.847 -14.190 -26.091  0.00  0.00    +0.000 A 
ATOM      6  C   UNL     1     -45.988 -13.796 -27.418  0.00  0.00    +0.000 A 
ATOM      7  C   UNL     1     -45.137 -14.239 -28.382  0.00  0.00    +0.000 A 
ATOM      8  C   UNL     1     -44.090 -15.109 -28.094  0.00  0.00    +0.000 A 
ATOM      9  C   UNL     1     -43.925 -15.547 -26.764  0.00  0.00    +0.000 A 
ATOM     10  C   UNL     1     -46.608 -12.878 -29.506  0.00  0.00    +0.000 C 
ATOM     11  C   UNL     1     -46.997 -12.883 -28.010  0.00  0.00    +0.000 C 
ATOM     12  C   UNL     1     -46.256 -11.469 -29.939  0.00  0.00    +0.000 C 
ATOM     13  O   UNL     1     -45.459 -13.718 -29.616  0.00  0.00    +0.000 OA
BRANCH   4  14
ATOM     14  O   UNL     1     -44.615 -15.506 -24.437  0.00  0.00    +0.000 OA
BRANCH  14  16
ATOM     15  C   UNL     1     -45.903 -15.038 -22.471  0.00  0.00    +0.000 C 
ATOM     16  C   UNL     1     -44.719 -14.632 -23.322  0.00  0.00    +0.000 C 
ENDBRANCH  14  16
ENDBRANCH   4  14
ENDBRANCH   3   9
BRANCH   1  17
ATOM     17  C   UNL     1     -44.112 -18.657 -26.567  0.00  0.00    +0.000 C 
BRANCH  17  18
ATOM     18  C   UNL     1     -44.033 -19.894 -25.690  0.00  0.00    +0.000 C 
BRANCH  18  19
ATOM     19  C   UNL     1     -44.228 -19.532 -24.246  0.00  0.00    +0.000 A 
ATOM     20  C   UNL     1     -43.240 -19.886 -23.292  0.00  0.00    +0.000 A 
ATOM     21  C   UNL     1     -43.459 -19.500 -21.962  0.00  0.00    +0.000 A 
ATOM     22  C   UNL     1     -44.613 -18.859 -21.608  0.00  0.00    +0.000 A 
ATOM     23  C   UNL     1     -45.390 -18.824 -23.822  0.00  0.00    +0.000 A 
ATOM     24  C   UNL     1     -46.438 -18.402 -24.796  0.00  0.00    +0.000 C 
ATOM     25  C   UNL     1     -42.792 -19.671 -20.745  0.00  0.00    +0.000 A 
ATOM     26  C   UNL     1     -45.732 -18.055 -19.525  0.00  0.00    +0.000 C 
ATOM     27  C   UNL     1     -42.063 -20.715 -23.690  0.00  0.00    +0.000 C 
ATOM     28  N   UNL     1     -45.569 -18.517 -22.505  0.00  0.00    +0.000 NA
ATOM     29  N   UNL     1     -44.658 -18.676 -20.281  0.00  0.00    +0.000 N 
ATOM     30  N   UNL     1     -43.555 -19.174 -19.741  0.00  0.00    +0.000 NA
BRANCH  25  32
ATOM     31  C   UNL     1     -40.336 -19.485 -20.553  0.00  0.00    +0.000 C 
ATOM     32  O   UNL     1     -41.537 -20.237 -20.511  0.00  0.00    +0.000 OA
ENDBRANCH  25  32
ENDBRANCH  18  19
ENDBRANCH  17  18
ENDBRANCH   1  17
TORSDOF 7
ENDMDL
MODEL 2
REMARK VINA RESULT:      -6.3     11.671     14.622
REMARK  Name = ZINC000030726767 ZINC30726767 PubChem-37870901
REMARK  7 active torsions:
REMARK  status: ('A' for Active; 'I' for Inactive)
REMARK    1  A    between atoms: C_2  and  O_25
REMARK    2  A    between atoms: C_3  and  O_25
REMARK    3  A    between atoms: C_8  and  N_29
REMARK    4  A    between atoms: C_9  and  C_10
REMARK    5  A    between atoms: C_10  and  C_11
REMARK    6  A    between atoms: C_11  and  C_12
REMARK    7  A    between atoms: C_18  and  O_27
REMARK                            x       y       z     vdW  Elec       q    Type
REMARK                         _______ _______ _______ _____ _____    ______ ____
ROOT
ATOM      1  C   UNL     1     -46.314  -8.402 -31.481  0.00  0.00    +0.000 C 
ATOM      2  O   UNL     1     -46.279  -9.492 -30.855  0.00  0.00    +0.000 OA
ATOM      3  N   UNL     1     -46.051  -7.183 -30.771  0.00  0.00    +0.000 NA
ENDROOT
BRANCH   3   9
ATOM      4  C   UNL     1     -46.662  -4.808 -30.926  0.00  0.00    +0.000 A 
ATOM      5  C   UNL     1     -46.445  -3.514 -31.445  0.00  0.00    +0.000 A 
ATOM      6  C   UNL     1     -45.402  -3.322 -32.345  0.00  0.00    +0.000 A 
ATOM      7  C   UNL     1     -44.593  -4.350 -32.720  0.00  0.00    +0.000 A 
ATOM      8  C   UNL     1     -44.770  -5.640 -32.230  0.00  0.00    +0.000 A 
ATOM      9  C   UNL     1     -45.828  -5.879 -31.329  0.00  0.00    +0.000 A 
ATOM     10  C   UNL     1     -43.786  -2.539 -33.882  0.00  0.00    +0.000 C 
ATOM     11  C   UNL     1     -44.980  -2.070 -33.019  0.00  0.00    +0.000 C 
ATOM     12  C   UNL     1     -42.533  -1.793 -33.471  0.00  0.00    +0.000 C 
ATOM     13  O   UNL     1     -43.629  -3.932 -33.610  0.00  0.00    +0.000 OA
BRANCH   4  14
ATOM     14  O   UNL     1     -47.699  -5.057 -30.018  0.00  0.00    +0.000 OA
BRANCH  14  16
ATOM     15  C   UNL     1     -46.652  -5.014 -27.863  0.00  0.00    +0.000 C 
ATOM     16  C   UNL     1     -47.756  -4.453 -28.733  0.00  0.00    +0.000 C 
ENDBRANCH  14  16
ENDBRANCH   4  14
ENDBRANCH   3   9
BRANCH   1  17
ATOM     17  C   UNL     1     -46.707  -8.415 -32.921  0.00  0.00    +0.000 C 
BRANCH  17  18
ATOM     18  C   UNL     1     -45.562  -8.953 -33.762  0.00  0.00    +0.000 C 
BRANCH  18  19
ATOM     19  C   UNL     1     -46.062  -9.426 -35.096  0.00  0.00    +0.000 A 
ATOM     20  C   UNL     1     -46.341 -10.802 -35.295  0.00  0.00    +0.000 A 
ATOM     21  C   UNL     1     -46.831 -11.186 -36.552  0.00  0.00    +0.000 A 
ATOM     22  C   UNL     1     -46.973 -10.265 -37.551  0.00  0.00    +0.000 A 
ATOM     23  C   UNL     1     -46.271  -8.507 -36.164  0.00  0.00    +0.000 A 
ATOM     24  C   UNL     1     -46.022  -7.046 -35.988  0.00  0.00    +0.000 C 
ATOM     25  C   UNL     1     -47.184 -12.392 -37.165  0.00  0.00    +0.000 A 
ATOM     26  C   UNL     1     -47.585 -10.223 -39.972  0.00  0.00    +0.000 C 
ATOM     27  C   UNL     1     -46.035 -11.801 -34.228  0.00  0.00    +0.000 C 
ATOM     28  N   UNL     1     -46.706  -8.948 -37.379  0.00  0.00    +0.000 NA
ATOM     29  N   UNL     1     -47.356 -10.862 -38.687  0.00  0.00    +0.000 N 
ATOM     30  N   UNL     1     -47.481 -12.163 -38.467  0.00  0.00    +0.000 NA
BRANCH  25  32
ATOM     31  C   UNL     1     -46.839 -14.835 -37.285  0.00  0.00    +0.000 C 
ATOM     32  O   UNL     1     -47.259 -13.667 -36.601  0.00  0.00    +0.000 OA
ENDBRANCH  25  32
ENDBRANCH  18  19
ENDBRANCH  17  18
ENDBRANCH   1  17
TORSDOF 7
ENDMDL
MODEL 3
REMARK VINA RESULT:      -6.2     12.735     15.680
REMARK  Name = ZINC000030726767 ZINC30726767 PubChem-37870901
REMARK  7 active torsions:
REMARK  status: ('A' for Active; 'I' for Inactive)
REMARK    1  A    between atoms: C_2  and  O_25
REMARK    2  A    between atoms: C_3  and  O_25
REMARK    3  A    between atoms: C_8  and  N_29
REMARK    4  A    between atoms: C_9  and  C_10
REMARK    5  A    between atoms: C_10  and  C_11
REMARK    6  A    between atoms: C_11  and  C_12
REMARK    7  A    between atoms: C_18  and  O_27
REMARK                            x       y       z     vdW  Elec       q    Type
REMARK                         _______ _______ _______ _____ _____    ______ ____
ROOT
ATOM      1  C   UNL     1     -46.231  -7.095 -32.519  0.00  0.00    +0.000 C 
ATOM      2  O   UNL     1     -46.918  -8.123 -32.749  0.00  0.00    +0.000 OA
ATOM      3  N   UNL     1     -46.639  -5.843 -33.089  0.00  0.00    +0.000 NA
ENDROOT
BRANCH   3   9
ATOM      4  C   UNL     1     -46.676  -3.834 -31.675  0.00  0.00    +0.000 A 
ATOM      5  C   UNL     1     -46.177  -2.557 -31.339  0.00  0.00    +0.000 A 
ATOM      6  C   UNL     1     -45.150  -2.019 -32.108  0.00  0.00    +0.000 A 
ATOM      7  C   UNL     1     -44.620  -2.702 -33.159  0.00  0.00    +0.000 A 
ATOM      8  C   UNL     1     -45.080  -3.964 -33.521  0.00  0.00    +0.000 A 
ATOM      9  C   UNL     1     -46.132  -4.536 -32.778  0.00  0.00    +0.000 A 
ATOM     10  C   UNL     1     -43.448  -0.725 -33.116  0.00  0.00    +0.000 C 
ATOM     11  C   UNL     1     -44.467  -0.711 -31.953  0.00  0.00    +0.000 C 
ATOM     12  C   UNL     1     -42.040  -0.618 -32.565  0.00  0.00    +0.000 C 
ATOM     13  O   UNL     1     -43.616  -1.984 -33.769  0.00  0.00    +0.000 OA
BRANCH   4  14
ATOM     14  O   UNL     1     -47.710  -4.421 -30.936  0.00  0.00    +0.000 OA
BRANCH  14  16
ATOM     15  C   UNL     1     -46.739  -5.456 -29.005  0.00  0.00    +0.000 C 
ATOM     16  C   UNL     1     -47.729  -4.432 -29.515  0.00  0.00    +0.000 C 
ENDBRANCH  14  16
ENDBRANCH   4  14
ENDBRANCH   3   9
BRANCH   1  17
ATOM     17  C   UNL     1     -44.972  -7.237 -31.729  0.00  0.00    +0.000 C 
BRANCH  17  18
ATOM     18  C   UNL     1     -43.953  -8.034 -32.525  0.00  0.00    +0.000 C 
BRANCH  18  19
ATOM     19  C   UNL     1     -42.784  -7.170 -32.902  0.00  0.00    +0.000 A 
ATOM     20  C   UNL     1     -42.708  -6.618 -34.206  0.00  0.00    +0.000 A 
ATOM     21  C   UNL     1     -41.609  -5.798 -34.497  0.00  0.00    +0.000 A 
ATOM     22  C   UNL     1     -40.630  -5.595 -33.566  0.00  0.00    +0.000 A 
ATOM     23  C   UNL     1     -41.753  -6.887 -31.960  0.00  0.00    +0.000 A 
ATOM     24  C   UNL     1     -41.809  -7.419 -30.568  0.00  0.00    +0.000 C 
ATOM     25  C   UNL     1     -41.140  -5.111 -35.621  0.00  0.00    +0.000 A 
ATOM     26  C   UNL     1     -38.407  -4.467 -33.416  0.00  0.00    +0.000 C 
ATOM     27  C   UNL     1     -43.721  -6.980 -35.243  0.00  0.00    +0.000 C 
ATOM     28  N   UNL     1     -40.684  -6.119 -32.317  0.00  0.00    +0.000 NA
ATOM     29  N   UNL     1     -39.633  -4.867 -34.086  0.00  0.00    +0.000 N 
ATOM     30  N   UNL     1     -39.929  -4.571 -35.343  0.00  0.00    +0.000 NA
BRANCH  25  32
ATOM     31  C   UNL     1     -41.390  -5.691 -38.009  0.00  0.00    +0.000 C 
ATOM     32  O   UNL     1     -41.758  -4.945 -36.862  0.00  0.00    +0.000 OA
ENDBRANCH  25  32
ENDBRANCH  18  19
ENDBRANCH  17  18
ENDBRANCH   1  17
TORSDOF 7
ENDMDL
