MODEL 1
REMARK VINA RESULT:      -5.4      0.000      0.000
REMARK  Name = ZINC000239637078 PubChem-124725638
REMARK  7 active torsions:
REMARK  status: ('A' for Active; 'I' for Inactive)
REMARK    1  A    between atoms: C_2  and  C_3
REMARK    2  A    between atoms: C_2  and  C_17
REMARK    3  A    between atoms: C_3  and  N_21
REMARK    4  A    between atoms: C_4  and  C_5
REMARK    5  A    between atoms: C_8  and  N_22
REMARK    6  A    between atoms: C_12  and  C_13
REMARK    7  A    between atoms: C_17  and  N_25
REMARK                            x       y       z     vdW  Elec       q    Type
REMARK                         _______ _______ _______ _____ _____    ______ ____
ROOT
ATOM      1  C   UNL     1     -43.234  -5.901 -30.976  0.00  0.00    +0.000 C 
ATOM      2  C   UNL     1     -42.505  -7.200 -31.329  0.00  0.00    +0.000 C 
ATOM      3  C   UNL     1     -43.602  -8.166 -31.513  0.00  0.00    +0.000 C 
ATOM      4  C   UNL     1     -44.732  -6.230 -30.842  0.00  0.00    +0.000 C 
ATOM      5  N   UNL     1     -44.887  -7.615 -31.273  0.00  0.00    +0.000 N 
ATOM      6  O   UNL     1     -43.416  -9.367 -31.839  0.00  0.00    +0.000 OA
ENDROOT
BRANCH   4   7
ATOM      7  C   UNL     1     -45.164  -6.066 -29.418  0.00  0.00    +0.000 A 
ATOM      8  C   UNL     1     -44.660  -6.763 -28.337  0.00  0.00    +0.000 A 
ATOM      9  C   UNL     1     -47.057  -4.712 -26.689  0.00  0.00    +0.000 C 
ATOM     10  C   UNL     1     -46.136  -5.210 -28.937  0.00  0.00    +0.000 A 
ATOM     11  N   UNL     1     -45.308  -6.331 -27.238  0.00  0.00    +0.000 NA
ATOM     12  N   UNL     1     -46.181  -5.411 -27.611  0.00  0.00    +0.000 N 
ENDBRANCH   4   7
BRANCH   5  13
ATOM     13  C   UNL     1     -46.162  -8.306 -31.532  0.00  0.00    +0.000 C 
ATOM     14  C   UNL     1     -47.342  -7.347 -31.501  0.00  0.00    +0.000 C 
ATOM     15  C   UNL     1     -46.389  -9.374 -30.477  0.00  0.00    +0.000 C 
ATOM     16  C   UNL     1     -46.132  -8.958 -32.901  0.00  0.00    +0.000 C 
ENDBRANCH   5  13
BRANCH   1  17
ATOM     17  C   UNL     1     -43.012  -4.888 -32.051  0.00  0.00    +0.000 C 
ATOM     18  N   UNL     1     -42.184  -3.749 -31.806  0.00  0.00    +0.000 NA
ATOM     19  O   UNL     1     -43.591  -5.032 -33.161  0.00  0.00    +0.000 OA
BRANCH  18  20
ATOM     20  C   UNL     1     -41.993  -2.697 -32.795  0.00  0.00    +0.000 C 
BRANCH  20  22
ATOM     21  C   UNL     1     -41.265  -0.342 -32.357  0.00  0.00    +0.000 C 
ATOM     22  C   UNL     1     -42.403  -1.337 -32.233  0.00  0.00    +0.000 C 
BRANCH  22  23
ATOM     23  C   UNL     1     -43.650  -0.786 -32.918  0.00  0.00    +0.000 C 
BRANCH  23  27
ATOM     24  C   UNL     1     -45.315  -2.041 -31.577  0.00  0.00    +0.000 A 
ATOM     25  C   UNL     1     -46.392  -2.871 -31.838  0.00  0.00    +0.000 A 
ATOM     26  C   UNL     1     -46.448  -2.963 -33.220  0.00  0.00    +0.000 A 
ATOM     27  N   UNL     1     -44.780  -1.687 -32.754  0.00  0.00    +0.000 N 
ATOM     28  N   UNL     1     -45.455  -2.226 -33.752  0.00  0.00    +0.000 NA
ENDBRANCH  23  27
ENDBRANCH  22  23
ENDBRANCH  20  22
ENDBRANCH  18  20
ENDBRANCH   1  17
TORSDOF 7
ENDMDL
MODEL 2
REMARK VINA RESULT:      -5.2      2.481      7.100
REMARK  Name = ZINC000239637078 PubChem-124725638
REMARK  7 active torsions:
REMARK  status: ('A' for Active; 'I' for Inactive)
REMARK    1  A    between atoms: C_2  and  C_3
REMARK    2  A    between atoms: C_2  and  C_17
REMARK    3  A    between atoms: C_3  and  N_21
REMARK    4  A    between atoms: C_4  and  C_5
REMARK    5  A    between atoms: C_8  and  N_22
REMARK    6  A    between atoms: C_12  and  C_13
REMARK    7  A    between atoms: C_17  and  N_25
REMARK                            x       y       z     vdW  Elec       q    Type
REMARK                         _______ _______ _______ _____ _____    ______ ____
ROOT
ATOM      1  C   UNL     1     -45.791  -5.143 -30.927  0.00  0.00    +0.000 C 
ATOM      2  C   UNL     1     -44.406  -5.523 -30.397  0.00  0.00    +0.000 C 
ATOM      3  C   UNL     1     -43.494  -4.695 -31.206  0.00  0.00    +0.000 C 
ATOM      4  C   UNL     1     -45.588  -4.199 -32.126  0.00  0.00    +0.000 C 
ATOM      5  N   UNL     1     -44.160  -3.903 -32.177  0.00  0.00    +0.000 N 
ATOM      6  O   UNL     1     -42.245  -4.699 -31.058  0.00  0.00    +0.000 OA
ENDROOT
BRANCH   4   7
ATOM      7  C   UNL     1     -46.035  -4.873 -33.385  0.00  0.00    +0.000 A 
ATOM      8  C   UNL     1     -47.122  -4.507 -34.155  0.00  0.00    +0.000 A 
ATOM      9  C   UNL     1     -45.945  -7.292 -36.032  0.00  0.00    +0.000 C 
ATOM     10  C   UNL     1     -45.458  -5.974 -33.989  0.00  0.00    +0.000 A 
ATOM     11  N   UNL     1     -47.189  -5.360 -35.195  0.00  0.00    +0.000 NA
ATOM     12  N   UNL     1     -46.196  -6.225 -35.082  0.00  0.00    +0.000 N 
ENDBRANCH   4   7
BRANCH   5  13
ATOM     13  C   UNL     1     -43.516  -2.874 -33.011  0.00  0.00    +0.000 C 
ATOM     14  C   UNL     1     -42.706  -3.488 -34.142  0.00  0.00    +0.000 C 
ATOM     15  C   UNL     1     -42.582  -2.034 -32.157  0.00  0.00    +0.000 C 
ATOM     16  C   UNL     1     -44.568  -1.973 -33.631  0.00  0.00    +0.000 C 
ENDBRANCH   5  13
BRANCH   1  17
ATOM     17  C   UNL     1     -46.576  -4.465 -29.852  0.00  0.00    +0.000 C 
ATOM     18  N   UNL     1     -46.573  -4.987 -28.521  0.00  0.00    +0.000 NA
ATOM     19  O   UNL     1     -47.266  -3.451 -30.140  0.00  0.00    +0.000 OA
BRANCH  18  20
ATOM     20  C   UNL     1     -47.378  -4.407 -27.454  0.00  0.00    +0.000 C 
BRANCH  20  22
ATOM     21  C   UNL     1     -47.382  -3.791 -25.028  0.00  0.00    +0.000 C 
ATOM     22  C   UNL     1     -46.751  -4.675 -26.087  0.00  0.00    +0.000 C 
BRANCH  22  23
ATOM     23  C   UNL     1     -46.872  -6.140 -25.679  0.00  0.00    +0.000 C 
BRANCH  23  27
ATOM     24  C   UNL     1     -44.657  -7.127 -26.201  0.00  0.00    +0.000 A 
ATOM     25  C   UNL     1     -43.548  -7.536 -25.481  0.00  0.00    +0.000 A 
ATOM     26  C   UNL     1     -43.876  -7.305 -24.154  0.00  0.00    +0.000 A 
ATOM     27  N   UNL     1     -45.574  -6.693 -25.324  0.00  0.00    +0.000 N 
ATOM     28  N   UNL     1     -45.116  -6.786 -24.090  0.00  0.00    +0.000 NA
ENDBRANCH  23  27
ENDBRANCH  22  23
ENDBRANCH  20  22
ENDBRANCH  18  20
ENDBRANCH   1  17
TORSDOF 7
ENDMDL
MODEL 3
REMARK VINA RESULT:      -5.0     10.484     14.683
REMARK  Name = ZINC000239637078 PubChem-124725638
REMARK  7 active torsions:
REMARK  status: ('A' for Active; 'I' for Inactive)
REMARK    1  A    between atoms: C_2  and  C_3
REMARK    2  A    between atoms: C_2  and  C_17
REMARK    3  A    between atoms: C_3  and  N_21
REMARK    4  A    between atoms: C_4  and  C_5
REMARK    5  A    between atoms: C_8  and  N_22
REMARK    6  A    between atoms: C_12  and  C_13
REMARK    7  A    between atoms: C_17  and  N_25
REMARK                            x       y       z     vdW  Elec       q    Type
REMARK                         _______ _______ _______ _____ _____    ______ ____
ROOT
ATOM      1  C   UNL     1     -46.216 -15.312 -24.301  0.00  0.00    +0.000 C 
ATOM      2  C   UNL     1     -45.964 -16.685 -24.928  0.00  0.00    +0.000 C 
ATOM      3  C   UNL     1     -44.748 -16.473 -25.733  0.00  0.00    +0.000 C 
ATOM      4  C   UNL     1     -45.189 -14.332 -24.897  0.00  0.00    +0.000 C 
ATOM      5  N   UNL     1     -44.272 -15.136 -25.697  0.00  0.00    +0.000 N 
ATOM      6  O   UNL     1     -44.194 -17.385 -26.400  0.00  0.00    +0.000 OA
ENDROOT
BRANCH   4   7
ATOM      7  C   UNL     1     -45.890 -13.321 -25.751  0.00  0.00    +0.000 A 
ATOM      8  C   UNL     1     -46.506 -13.574 -26.961  0.00  0.00    +0.000 A 
ATOM      9  C   UNL     1     -47.114 -10.079 -26.675  0.00  0.00    +0.000 C 
ATOM     10  C   UNL     1     -46.032 -11.970 -25.493  0.00  0.00    +0.000 A 
ATOM     11  N   UNL     1     -47.011 -12.409 -27.411  0.00  0.00    +0.000 NA
ATOM     12  N   UNL     1     -46.720 -11.467 -26.529  0.00  0.00    +0.000 N 
ENDBRANCH   4   7
BRANCH   5  13
ATOM     13  C   UNL     1     -42.999 -14.680 -26.280  0.00  0.00    +0.000 C 
ATOM     14  C   UNL     1     -42.624 -13.287 -25.799  0.00  0.00    +0.000 C 
ATOM     15  C   UNL     1     -43.111 -14.647 -27.794  0.00  0.00    +0.000 C 
ATOM     16  C   UNL     1     -41.878 -15.623 -25.885  0.00  0.00    +0.000 C 
ENDBRANCH   5  13
BRANCH   1  17
ATOM     17  C   UNL     1     -46.060 -15.397 -22.817  0.00  0.00    +0.000 C 
ATOM     18  N   UNL     1     -45.433 -16.536 -22.223  0.00  0.00    +0.000 NA
ATOM     19  O   UNL     1     -46.516 -14.469 -22.096  0.00  0.00    +0.000 OA
BRANCH  18  20
ATOM     20  C   UNL     1     -45.321 -16.700 -20.781  0.00  0.00    +0.000 C 
BRANCH  20  22
ATOM     21  C   UNL     1     -46.547 -18.773 -20.098  0.00  0.00    +0.000 C 
ATOM     22  C   UNL     1     -45.188 -18.175 -20.405  0.00  0.00    +0.000 C 
BRANCH  22  23
ATOM     23  C   UNL     1     -44.500 -18.984 -21.500  0.00  0.00    +0.000 C 
BRANCH  23  27
ATOM     24  C   UNL     1     -42.022 -18.975 -21.579  0.00  0.00    +0.000 A 
ATOM     25  C   UNL     1     -40.996 -19.599 -20.890  0.00  0.00    +0.000 A 
ATOM     26  C   UNL     1     -41.628 -20.418 -19.967  0.00  0.00    +0.000 A 
ATOM     27  N   UNL     1     -43.181 -19.425 -21.076  0.00  0.00    +0.000 N 
ATOM     28  N   UNL     1     -42.960 -20.286 -20.100  0.00  0.00    +0.000 NA
ENDBRANCH  23  27
ENDBRANCH  22  23
ENDBRANCH  20  22
ENDBRANCH  18  20
ENDBRANCH   1  17
TORSDOF 7
ENDMDL
