MODEL 1
REMARK VINA RESULT:      -7.7      0.000      0.000
REMARK  Name = ZINC000020135468 ZINC20135468 PubChem-92655510
REMARK  3 active torsions:
REMARK  status: ('A' for Active; 'I' for Inactive)
REMARK    1  A    between atoms: C_2  and  O_19
REMARK    2  A    between atoms: C_6  and  C_8
REMARK    3  A    between atoms: C_10  and  C_13
REMARK                            x       y       z     vdW  Elec       q    Type
REMARK                         _______ _______ _______ _____ _____    ______ ____
ROOT
ATOM      1  C   UNL     1     -47.243  -3.314 -26.180  0.00  0.00    +0.000 C 
ATOM      2  C   UNL     1     -46.869  -4.852 -28.185  0.00  0.00    +0.000 C 
ATOM      3  C   UNL     1     -47.136  -4.145 -30.509  0.00  0.00    +0.000 C 
ATOM      4  C   UNL     1     -47.367  -5.606 -30.922  0.00  0.00    +0.000 C 
ATOM      5  C   UNL     1     -46.676  -6.542 -29.982  0.00  0.00    +0.000 C 
ATOM      6  O   UNL     1     -47.550  -2.323 -26.898  0.00  0.00    +0.000 OA
ATOM      7  O   UNL     1     -46.282  -7.667 -30.383  0.00  0.00    +0.000 OA
ATOM      8  N   UNL     1     -46.898  -4.570 -26.781  0.00  0.00    +0.000 NA
ATOM      9  N   UNL     1     -47.216  -3.947 -29.056  0.00  0.00    +0.000 NA
ATOM     10  N   UNL     1     -46.484  -6.158 -28.621  0.00  0.00    +0.000 NA
ENDROOT
BRANCH   3  11
ATOM     11  C   UNL     1     -45.852  -3.600 -31.054  0.00  0.00    +0.000 A 
ATOM     12  C   UNL     1     -44.754  -4.435 -31.313  0.00  0.00    +0.000 A 
ATOM     13  C   UNL     1     -43.563  -3.898 -31.812  0.00  0.00    +0.000 A 
ATOM     14  C   UNL     1     -43.464  -2.524 -32.052  0.00  0.00    +0.000 A 
ATOM     15  C   UNL     1     -44.554  -1.688 -31.791  0.00  0.00    +0.000 A 
ATOM     16  C   UNL     1     -45.744  -2.225 -31.292  0.00  0.00    +0.000 A 
ATOM     17  F   UNL     1     -44.456  -0.357 -32.023  0.00  0.00    +0.000 F 
ENDBRANCH   3  11
BRANCH   1  22
ATOM     18  C   UNL     1     -47.185  -4.198 -22.497  0.00  0.00    +0.000 A 
ATOM     19  C   UNL     1     -47.227  -2.926 -21.918  0.00  0.00    +0.000 A 
ATOM     20  C   UNL     1     -47.276  -1.785 -22.723  0.00  0.00    +0.000 A 
ATOM     21  C   UNL     1     -47.281  -1.911 -24.114  0.00  0.00    +0.000 A 
ATOM     22  C   UNL     1     -47.237  -3.178 -24.712  0.00  0.00    +0.000 A 
ATOM     23  C   UNL     1     -47.190  -4.318 -23.897  0.00  0.00    +0.000 A 
BRANCH  18  25
ATOM     24  C   UNL     1     -47.433  -5.257 -20.277  0.00  0.00    +0.000 C 
ATOM     25  O   UNL     1     -47.136  -5.319 -21.665  0.00  0.00    +0.000 OA
ENDBRANCH  18  25
ENDBRANCH   1  22
TORSDOF 3
ENDMDL
MODEL 2
REMARK VINA RESULT:      -7.4      1.643      1.890
REMARK  Name = ZINC000020135468 ZINC20135468 PubChem-92655510
REMARK  3 active torsions:
REMARK  status: ('A' for Active; 'I' for Inactive)
REMARK    1  A    between atoms: C_2  and  O_19
REMARK    2  A    between atoms: C_6  and  C_8
REMARK    3  A    between atoms: C_10  and  C_13
REMARK                            x       y       z     vdW  Elec       q    Type
REMARK                         _______ _______ _______ _____ _____    ______ ____
ROOT
ATOM      1  C   UNL     1     -47.069  -4.279 -27.462  0.00  0.00    +0.000 C 
ATOM      2  C   UNL     1     -46.196  -5.252 -29.657  0.00  0.00    +0.000 C 
ATOM      3  C   UNL     1     -46.791  -4.383 -31.862  0.00  0.00    +0.000 C 
ATOM      4  C   UNL     1     -46.455  -5.745 -32.485  0.00  0.00    +0.000 C 
ATOM      5  C   UNL     1     -45.426  -6.464 -31.673  0.00  0.00    +0.000 C 
ATOM      6  O   UNL     1     -47.756  -3.392 -28.039  0.00  0.00    +0.000 OA
ATOM      7  O   UNL     1     -44.642  -7.280 -32.221  0.00  0.00    +0.000 OA
ATOM      8  N   UNL     1     -46.285  -5.205 -28.228  0.00  0.00    +0.000 NA
ATOM      9  N   UNL     1     -46.893  -4.438 -30.398  0.00  0.00    +0.000 NA
ATOM     10  N   UNL     1     -45.352  -6.233 -30.267  0.00  0.00    +0.000 NA
ENDROOT
BRANCH   3  11
ATOM     11  C   UNL     1     -45.835  -3.312 -32.292  0.00  0.00    +0.000 A 
ATOM     12  C   UNL     1     -44.973  -3.497 -33.384  0.00  0.00    +0.000 A 
ATOM     13  C   UNL     1     -44.083  -2.485 -33.757  0.00  0.00    +0.000 A 
ATOM     14  C   UNL     1     -44.048  -1.286 -33.039  0.00  0.00    +0.000 A 
ATOM     15  C   UNL     1     -44.902  -1.100 -31.948  0.00  0.00    +0.000 A 
ATOM     16  C   UNL     1     -45.792  -2.111 -31.574  0.00  0.00    +0.000 A 
ATOM     17  F   UNL     1     -44.867   0.062 -31.252  0.00  0.00    +0.000 F 
ENDBRANCH   3  11
BRANCH   1  22
ATOM     18  C   UNL     1     -46.825  -5.672 -23.949  0.00  0.00    +0.000 A 
ATOM     19  C   UNL     1     -47.064  -4.523 -23.190  0.00  0.00    +0.000 A 
ATOM     20  C   UNL     1     -47.304  -3.298 -23.820  0.00  0.00    +0.000 A 
ATOM     21  C   UNL     1     -47.306  -3.218 -25.214  0.00  0.00    +0.000 A 
ATOM     22  C   UNL     1     -47.067  -4.361 -25.991  0.00  0.00    +0.000 A 
ATOM     23  C   UNL     1     -46.828  -5.585 -25.351  0.00  0.00    +0.000 A 
BRANCH  18  25
ATOM     24  C   UNL     1     -47.632  -7.671 -22.737  0.00  0.00    +0.000 C 
ATOM     25  O   UNL     1     -46.588  -6.881 -23.290  0.00  0.00    +0.000 OA
ENDBRANCH  18  25
ENDBRANCH   1  22
TORSDOF 3
ENDMDL
MODEL 3
REMARK VINA RESULT:      -6.9     10.859     13.815
REMARK  Name = ZINC000020135468 ZINC20135468 PubChem-92655510
REMARK  3 active torsions:
REMARK  status: ('A' for Active; 'I' for Inactive)
REMARK    1  A    between atoms: C_2  and  O_19
REMARK    2  A    between atoms: C_6  and  C_8
REMARK    3  A    between atoms: C_10  and  C_13
REMARK                            x       y       z     vdW  Elec       q    Type
REMARK                         _______ _______ _______ _____ _____    ______ ____
ROOT
ATOM      1  C   UNL     1     -45.424 -13.197 -24.748  0.00  0.00    +0.000 C 
ATOM      2  C   UNL     1     -45.659 -15.732 -24.542  0.00  0.00    +0.000 C 
ATOM      3  C   UNL     1     -44.465 -17.079 -22.889  0.00  0.00    +0.000 C 
ATOM      4  C   UNL     1     -44.627 -18.315 -23.785  0.00  0.00    +0.000 C 
ATOM      5  C   UNL     1     -45.849 -18.198 -24.640  0.00  0.00    +0.000 C 
ATOM      6  O   UNL     1     -44.594 -13.119 -23.801  0.00  0.00    +0.000 OA
ATOM      7  O   UNL     1     -46.456 -19.230 -25.022  0.00  0.00    +0.000 OA
ATOM      8  N   UNL     1     -45.972 -14.466 -25.134  0.00  0.00    +0.000 NA
ATOM      9  N   UNL     1     -44.776 -15.826 -23.589  0.00  0.00    +0.000 NA
ATOM     10  N   UNL     1     -46.310 -16.907 -25.035  0.00  0.00    +0.000 NA
ENDROOT
BRANCH   3  11
ATOM     11  C   UNL     1     -45.253 -17.193 -21.620  0.00  0.00    +0.000 A 
ATOM     12  C   UNL     1     -45.598 -16.059 -20.868  0.00  0.00    +0.000 A 
ATOM     13  C   UNL     1     -46.325 -16.196 -19.681  0.00  0.00    +0.000 A 
ATOM     14  C   UNL     1     -46.707 -17.466 -19.239  0.00  0.00    +0.000 A 
ATOM     15  C   UNL     1     -46.361 -18.598 -19.983  0.00  0.00    +0.000 A 
ATOM     16  C   UNL     1     -45.634 -18.462 -21.169  0.00  0.00    +0.000 A 
ATOM     17  F   UNL     1     -46.731 -19.829 -19.553  0.00  0.00    +0.000 F 
ENDBRANCH   3  11
BRANCH   1  22
ATOM     18  C   UNL     1     -46.570 -10.869 -27.507  0.00  0.00    +0.000 A 
ATOM     19  C   UNL     1     -46.622  -9.651 -26.823  0.00  0.00    +0.000 A 
ATOM     20  C   UNL     1     -46.283  -9.588 -25.468  0.00  0.00    +0.000 A 
ATOM     21  C   UNL     1     -45.893 -10.745 -24.791  0.00  0.00    +0.000 A 
ATOM     22  C   UNL     1     -45.837 -11.975 -25.461  0.00  0.00    +0.000 A 
ATOM     23  C   UNL     1     -46.177 -12.029 -26.820  0.00  0.00    +0.000 A 
BRANCH  18  25
ATOM     24  C   UNL     1     -46.824 -12.079 -29.649  0.00  0.00    +0.000 C 
ATOM     25  O   UNL     1     -46.915 -10.900 -28.861  0.00  0.00    +0.000 OA
ENDBRANCH  18  25
ENDBRANCH   1  22
TORSDOF 3
ENDMDL
