MODEL 1
REMARK VINA RESULT:      -6.0      0.000      0.000
REMARK  Name = ZINC000079361855 ZINC79361855 PubChem-96551248
REMARK  3 active torsions:
REMARK  status: ('A' for Active; 'I' for Inactive)
REMARK    1  A    between atoms: C_4  and  N_19
REMARK    2  A    between atoms: C_7  and  C_8
REMARK    3  A    between atoms: C_12  and  C_13
REMARK                            x       y       z     vdW  Elec       q    Type
REMARK                         _______ _______ _______ _____ _____    ______ ____
ROOT
ATOM      1  C   UNL     1     -45.955  -3.285 -31.409  0.00  0.00    +0.000 C 
ATOM      2  C   UNL     1     -46.815  -3.362 -32.672  0.00  0.00    +0.000 C 
ATOM      3  C   UNL     1     -46.711  -4.724 -33.348  0.00  0.00    +0.000 C 
ATOM      4  C   UNL     1     -45.283  -5.137 -33.524  0.00  0.00    +0.000 C 
ATOM      5  C   UNL     1     -44.475  -3.568 -31.698  0.00  0.00    +0.000 C 
ATOM      6  C   UNL     1     -42.980  -5.378 -32.576  0.00  0.00    +0.000 C 
ATOM      7  N   UNL     1     -44.278  -4.721 -32.584  0.00  0.00    +0.000 N 
ATOM      8  O   UNL     1     -44.984  -5.901 -34.479  0.00  0.00    +0.000 OA
ENDROOT
BRANCH   5   9
ATOM      9  C   UNL     1     -43.789  -2.354 -32.249  0.00  0.00    +0.000 A 
ATOM     10  C   UNL     1     -44.333  -1.393 -33.084  0.00  0.00    +0.000 A 
ATOM     11  C   UNL     1     -42.473  -2.009 -32.030  0.00  0.00    +0.000 A 
ATOM     12  C   UNL     1     -41.013  -0.148 -32.776  0.00  0.00    +0.000 C 
ATOM     13  N   UNL     1     -43.366  -0.494 -33.350  0.00  0.00    +0.000 NA
ATOM     14  N   UNL     1     -42.269  -0.873 -32.717  0.00  0.00    +0.000 N 
ENDBRANCH   5   9
BRANCH   1  15
ATOM     15  C   UNL     1     -46.492  -4.140 -30.301  0.00  0.00    +0.000 C 
ATOM     16  N   UNL     1     -45.650  -5.118 -29.672  0.00  0.00    +0.000 NA
ATOM     17  O   UNL     1     -47.695  -3.999 -29.954  0.00  0.00    +0.000 OA
BRANCH  16  21
ATOM     18  C   UNL     1     -46.840  -9.678 -28.221  0.00  0.00    +0.000 C 
ATOM     19  C   UNL     1     -46.597  -8.246 -27.904  0.00  0.00    +0.000 A 
ATOM     20  C   UNL     1     -46.241  -7.358 -28.921  0.00  0.00    +0.000 A 
ATOM     21  C   UNL     1     -46.015  -6.014 -28.615  0.00  0.00    +0.000 A 
ATOM     22  C   UNL     1     -46.149  -5.583 -27.288  0.00  0.00    +0.000 A 
ATOM     23  C   UNL     1     -46.507  -6.501 -26.299  0.00  0.00    +0.000 A 
ATOM     24  N   UNL     1     -46.722  -7.804 -26.624  0.00  0.00    +0.000 NA
ENDBRANCH  16  21
ENDBRANCH   1  15
TORSDOF 3
ENDMDL
MODEL 2
REMARK VINA RESULT:      -5.9     10.866     14.829
REMARK  Name = ZINC000079361855 ZINC79361855 PubChem-96551248
REMARK  3 active torsions:
REMARK  status: ('A' for Active; 'I' for Inactive)
REMARK    1  A    between atoms: C_4  and  N_19
REMARK    2  A    between atoms: C_7  and  C_8
REMARK    3  A    between atoms: C_12  and  C_13
REMARK                            x       y       z     vdW  Elec       q    Type
REMARK                         _______ _______ _______ _____ _____    ______ ____
ROOT
ATOM      1  C   UNL     1     -44.173 -18.230 -26.185  0.00  0.00    +0.000 C 
ATOM      2  C   UNL     1     -43.537 -19.176 -27.207  0.00  0.00    +0.000 C 
ATOM      3  C   UNL     1     -42.076 -19.464 -26.881  0.00  0.00    +0.000 C 
ATOM      4  C   UNL     1     -41.316 -18.201 -26.623  0.00  0.00    +0.000 C 
ATOM      5  C   UNL     1     -43.426 -16.893 -26.091  0.00  0.00    +0.000 C 
ATOM      6  C   UNL     1     -41.172 -15.964 -25.510  0.00  0.00    +0.000 C 
ATOM      7  N   UNL     1     -41.968 -17.055 -26.049  0.00  0.00    +0.000 N 
ATOM      8  O   UNL     1     -40.080 -18.174 -26.866  0.00  0.00    +0.000 OA
ENDROOT
BRANCH   5   9
ATOM      9  C   UNL     1     -43.824 -15.971 -27.204  0.00  0.00    +0.000 A 
ATOM     10  C   UNL     1     -43.161 -15.772 -28.403  0.00  0.00    +0.000 A 
ATOM     11  C   UNL     1     -44.922 -15.138 -27.201  0.00  0.00    +0.000 A 
ATOM     12  C   UNL     1     -45.864 -13.491 -28.798  0.00  0.00    +0.000 C 
ATOM     13  N   UNL     1     -43.850 -14.847 -29.098  0.00  0.00    +0.000 NA
ATOM     14  N   UNL     1     -44.893 -14.481 -28.372  0.00  0.00    +0.000 N 
ENDBRANCH   5   9
BRANCH   1  15
ATOM     15  C   UNL     1     -44.352 -18.877 -24.845  0.00  0.00    +0.000 C 
ATOM     16  N   UNL     1     -43.949 -18.188 -23.652  0.00  0.00    +0.000 NA
ATOM     17  O   UNL     1     -44.838 -20.038 -24.791  0.00  0.00    +0.000 OA
BRANCH  16  21
ATOM     18  C   UNL     1     -46.700 -19.012 -19.643  0.00  0.00    +0.000 C 
ATOM     19  C   UNL     1     -45.391 -19.076 -20.344  0.00  0.00    +0.000 A 
ATOM     20  C   UNL     1     -45.278 -18.609 -21.654  0.00  0.00    +0.000 A 
ATOM     21  C   UNL     1     -44.044 -18.671 -22.306  0.00  0.00    +0.000 A 
ATOM     22  C   UNL     1     -42.940 -19.204 -21.628  0.00  0.00    +0.000 A 
ATOM     23  C   UNL     1     -43.091 -19.661 -20.317  0.00  0.00    +0.000 A 
ATOM     24  N   UNL     1     -44.305 -19.588 -19.706  0.00  0.00    +0.000 NA
ENDBRANCH  16  21
ENDBRANCH   1  15
TORSDOF 3
ENDMDL
MODEL 3
REMARK VINA RESULT:      -5.9      9.581     15.097
REMARK  Name = ZINC000079361855 ZINC79361855 PubChem-96551248
REMARK  3 active torsions:
REMARK  status: ('A' for Active; 'I' for Inactive)
REMARK    1  A    between atoms: C_4  and  N_19
REMARK    2  A    between atoms: C_7  and  C_8
REMARK    3  A    between atoms: C_12  and  C_13
REMARK                            x       y       z     vdW  Elec       q    Type
REMARK                         _______ _______ _______ _____ _____    ______ ____
ROOT
ATOM      1  C   UNL     1     -44.526 -16.502 -23.939  0.00  0.00    +0.000 C 
ATOM      2  C   UNL     1     -43.036 -16.398 -24.273  0.00  0.00    +0.000 C 
ATOM      3  C   UNL     1     -42.702 -17.078 -25.595  0.00  0.00    +0.000 C 
ATOM      4  C   UNL     1     -43.273 -18.460 -25.658  0.00  0.00    +0.000 C 
ATOM      5  C   UNL     1     -45.002 -17.960 -23.867  0.00  0.00    +0.000 C 
ATOM      6  C   UNL     1     -45.204 -20.009 -25.296  0.00  0.00    +0.000 C 
ATOM      7  N   UNL     1     -44.496 -18.780 -24.973  0.00  0.00    +0.000 N 
ATOM      8  O   UNL     1     -42.694 -19.326 -26.365  0.00  0.00    +0.000 OA
ENDROOT
BRANCH   5   9
ATOM      9  C   UNL     1     -44.654 -18.578 -22.547  0.00  0.00    +0.000 A 
ATOM     10  C   UNL     1     -43.598 -19.431 -22.275  0.00  0.00    +0.000 A 
ATOM     11  C   UNL     1     -45.362 -18.417 -21.375  0.00  0.00    +0.000 A 
ATOM     12  C   UNL     1     -45.122 -19.281 -19.063  0.00  0.00    +0.000 C 
ATOM     13  N   UNL     1     -43.671 -19.763 -20.972  0.00  0.00    +0.000 NA
ATOM     14  N   UNL     1     -44.722 -19.153 -20.452  0.00  0.00    +0.000 N 
ENDBRANCH   5   9
BRANCH   1  15
ATOM     15  C   UNL     1     -45.374 -15.672 -24.852  0.00  0.00    +0.000 C 
ATOM     16  N   UNL     1     -44.819 -14.520 -25.505  0.00  0.00    +0.000 NA
ATOM     17  O   UNL     1     -46.583 -15.990 -25.015  0.00  0.00    +0.000 OA
BRANCH  16  21
ATOM     18  C   UNL     1     -46.132 -13.319 -30.104  0.00  0.00    +0.000 C 
ATOM     19  C   UNL     1     -46.142 -13.036 -28.645  0.00  0.00    +0.000 A 
ATOM     20  C   UNL     1     -45.485 -13.897 -27.763  0.00  0.00    +0.000 A 
ATOM     21  C   UNL     1     -45.498 -13.624 -26.393  0.00  0.00    +0.000 A 
ATOM     22  C   UNL     1     -46.174 -12.487 -25.930  0.00  0.00    +0.000 A 
ATOM     23  C   UNL     1     -46.819 -11.649 -26.841  0.00  0.00    +0.000 A 
ATOM     24  N   UNL     1     -46.790 -11.939 -28.171  0.00  0.00    +0.000 NA
ENDBRANCH  16  21
ENDBRANCH   1  15
TORSDOF 3
ENDMDL
