MODEL 1
REMARK VINA RESULT:      -6.6      0.000      0.000
REMARK  Name = ZINC000262769186
REMARK  4 active torsions:
REMARK  status: ('A' for Active; 'I' for Inactive)
REMARK    1  A    between atoms: C_3  and  C_4
REMARK    2  A    between atoms: C_5  and  C_6
REMARK    3  A    between atoms: C_7  and  N_22
REMARK    4  A    between atoms: C_11  and  C_12
REMARK                            x       y       z     vdW  Elec       q    Type
REMARK                         _______ _______ _______ _____ _____    ______ ____
ROOT
ATOM      1  C   UNL     1     -44.987  -5.072 -30.076  0.00  0.00    +0.000 C 
ATOM      2  N   UNL     1     -46.120  -5.393 -29.254  0.00  0.00    +0.000 NA
ATOM      3  O   UNL     1     -43.970  -5.816 -30.094  0.00  0.00    +0.000 OA
ENDROOT
BRANCH   2   4
ATOM      4  C   UNL     1     -46.261  -6.522 -28.384  0.00  0.00    +0.000 A 
ATOM      5  C   UNL     1     -46.258  -6.384 -26.974  0.00  0.00    +0.000 A 
ATOM      6  C   UNL     1     -46.396  -7.506 -26.136  0.00  0.00    +0.000 A 
ATOM      7  C   UNL     1     -46.537  -8.747 -26.747  0.00  0.00    +0.000 A 
ATOM      8  C   UNL     1     -46.776 -10.810 -27.130  0.00  0.00    +0.000 A 
ATOM      9  C   UNL     1     -46.696 -10.229 -28.398  0.00  0.00    +0.000 A 
ATOM     10  C   UNL     1     -46.542  -8.890 -28.106  0.00  0.00    +0.000 A 
ATOM     11  C   UNL     1     -46.406  -7.799 -28.960  0.00  0.00    +0.000 A 
ATOM     12  O   UNL     1     -46.679  -9.910 -26.169  0.00  0.00    +0.000 OA
BRANCH   8  13
ATOM     13  C   UNL     1     -46.946 -12.244 -26.873  0.00  0.00    +0.000 C 
ATOM     14  O   UNL     1     -47.486 -12.986 -27.735  0.00  0.00    +0.000 OA
ATOM     15  O   UNL     1     -46.510 -12.790 -25.673  0.00  0.00    +0.000 OA
ENDBRANCH   8  13
ENDBRANCH   2   4
BRANCH   1  17
ATOM     16  C   UNL     1     -44.035  -3.966 -32.121  0.00  0.00    +0.000 C 
ATOM     17  C   UNL     1     -45.002  -3.849 -30.939  0.00  0.00    +0.000 C 
ATOM     18  C   UNL     1     -46.408  -3.454 -31.389  0.00  0.00    +0.000 C 
ATOM     19  C   UNL     1     -47.004  -4.441 -32.389  0.00  0.00    +0.000 C 
ATOM     20  C   UNL     1     -46.026  -4.845 -33.450  0.00  0.00    +0.000 C 
ATOM     21  C   UNL     1     -43.686  -5.268 -34.229  0.00  0.00    +0.000 C 
ATOM     22  N   UNL     1     -44.606  -4.695 -33.259  0.00  0.00    +0.000 N 
ATOM     23  O   UNL     1     -46.468  -5.374 -34.505  0.00  0.00    +0.000 OA
BRANCH  16  26
ATOM     24  C   UNL     1     -41.146   0.031 -32.840  0.00  0.00    +0.000 C 
ATOM     25  C   UNL     1     -42.277  -2.119 -32.345  0.00  0.00    +0.000 A 
ATOM     26  C   UNL     1     -43.548  -2.613 -32.543  0.00  0.00    +0.000 A 
ATOM     27  C   UNL     1     -44.288  -1.612 -33.149  0.00  0.00    +0.000 A 
ATOM     28  N   UNL     1     -42.283  -0.869 -32.836  0.00  0.00    +0.000 N 
ATOM     29  N   UNL     1     -43.473  -0.552 -33.318  0.00  0.00    +0.000 NA
ENDBRANCH  16  26
ENDBRANCH   1  17
TORSDOF 4
ENDMDL
MODEL 2
REMARK VINA RESULT:      -6.3      5.650      9.873
REMARK  Name = ZINC000262769186
REMARK  4 active torsions:
REMARK  status: ('A' for Active; 'I' for Inactive)
REMARK    1  A    between atoms: C_3  and  C_4
REMARK    2  A    between atoms: C_5  and  C_6
REMARK    3  A    between atoms: C_7  and  N_22
REMARK    4  A    between atoms: C_11  and  C_12
REMARK                            x       y       z     vdW  Elec       q    Type
REMARK                         _______ _______ _______ _____ _____    ______ ____
ROOT
ATOM      1  C   UNL     1     -45.610 -13.639 -25.744  0.00  0.00    +0.000 C 
ATOM      2  N   UNL     1     -46.459 -14.697 -25.275  0.00  0.00    +0.000 NA
ATOM      3  O   UNL     1     -44.379 -13.628 -25.473  0.00  0.00    +0.000 OA
ENDROOT
BRANCH   2   4
ATOM      4  C   UNL     1     -46.071 -15.822 -24.478  0.00  0.00    +0.000 A 
ATOM      5  C   UNL     1     -45.902 -17.113 -25.038  0.00  0.00    +0.000 A 
ATOM      6  C   UNL     1     -45.521 -18.206 -24.238  0.00  0.00    +0.000 A 
ATOM      7  C   UNL     1     -45.318 -17.966 -22.882  0.00  0.00    +0.000 A 
ATOM      8  C   UNL     1     -44.890 -18.164 -20.824  0.00  0.00    +0.000 A 
ATOM      9  C   UNL     1     -45.207 -16.812 -20.984  0.00  0.00    +0.000 A 
ATOM     10  C   UNL     1     -45.478 -16.725 -22.334  0.00  0.00    +0.000 A 
ATOM     11  C   UNL     1     -45.854 -15.626 -23.100  0.00  0.00    +0.000 A 
ATOM     12  O   UNL     1     -44.964 -18.825 -21.965  0.00  0.00    +0.000 OA
BRANCH   8  13
ATOM     13  C   UNL     1     -44.519 -18.794 -19.553  0.00  0.00    +0.000 C 
ATOM     14  O   UNL     1     -43.800 -18.178 -18.722  0.00  0.00    +0.000 OA
ATOM     15  O   UNL     1     -44.962 -20.078 -19.260  0.00  0.00    +0.000 OA
ENDBRANCH   8  13
ENDBRANCH   2   4
BRANCH   1  17
ATOM     16  C   UNL     1     -45.139 -11.441 -26.868  0.00  0.00    +0.000 C 
ATOM     17  C   UNL     1     -46.174 -12.532 -26.580  0.00  0.00    +0.000 C 
ATOM     18  C   UNL     1     -46.846 -13.033 -27.859  0.00  0.00    +0.000 C 
ATOM     19  C   UNL     1     -45.845 -13.589 -28.868  0.00  0.00    +0.000 C 
ATOM     20  C   UNL     1     -44.636 -12.716 -29.019  0.00  0.00    +0.000 C 
ATOM     21  C   UNL     1     -42.990 -11.072 -28.097  0.00  0.00    +0.000 C 
ATOM     22  N   UNL     1     -44.267 -11.764 -28.004  0.00  0.00    +0.000 N 
ATOM     23  O   UNL     1     -43.908 -12.869 -30.035  0.00  0.00    +0.000 OA
BRANCH  16  26
ATOM     24  C   UNL     1     -46.884  -7.271 -28.966  0.00  0.00    +0.000 C 
ATOM     25  C   UNL     1     -45.922  -9.447 -28.269  0.00  0.00    +0.000 A 
ATOM     26  C   UNL     1     -45.807 -10.115 -27.068  0.00  0.00    +0.000 A 
ATOM     27  C   UNL     1     -46.371  -9.309 -26.094  0.00  0.00    +0.000 A 
ATOM     28  N   UNL     1     -46.549  -8.292 -27.992  0.00  0.00    +0.000 N 
ATOM     29  N   UNL     1     -46.821  -8.194 -26.702  0.00  0.00    +0.000 NA
ENDBRANCH  16  26
ENDBRANCH   1  17
TORSDOF 4
ENDMDL
MODEL 3
REMARK VINA RESULT:      -6.2      4.309      6.883
REMARK  Name = ZINC000262769186
REMARK  4 active torsions:
REMARK  status: ('A' for Active; 'I' for Inactive)
REMARK    1  A    between atoms: C_3  and  C_4
REMARK    2  A    between atoms: C_5  and  C_6
REMARK    3  A    between atoms: C_7  and  N_22
REMARK    4  A    between atoms: C_11  and  C_12
REMARK                            x       y       z     vdW  Elec       q    Type
REMARK                         _______ _______ _______ _____ _____    ______ ____
ROOT
ATOM      1  C   UNL     1     -46.628 -11.287 -28.733  0.00  0.00    +0.000 C 
ATOM      2  N   UNL     1     -45.686 -11.731 -27.744  0.00  0.00    +0.000 NA
ATOM      3  O   UNL     1     -47.275 -12.115 -29.428  0.00  0.00    +0.000 OA
ENDROOT
BRANCH   2   4
ATOM      4  C   UNL     1     -45.354 -13.086 -27.419  0.00  0.00    +0.000 A 
ATOM      5  C   UNL     1     -44.357 -13.801 -28.128  0.00  0.00    +0.000 A 
ATOM      6  C   UNL     1     -44.045 -15.132 -27.794  0.00  0.00    +0.000 A 
ATOM      7  C   UNL     1     -44.753 -15.712 -26.746  0.00  0.00    +0.000 A 
ATOM      8  C   UNL     1     -45.495 -17.041 -25.283  0.00  0.00    +0.000 A 
ATOM      9  C   UNL     1     -46.228 -15.867 -25.088  0.00  0.00    +0.000 A 
ATOM     10  C   UNL     1     -45.716 -15.029 -26.056  0.00  0.00    +0.000 A 
ATOM     11  C   UNL     1     -46.046 -13.713 -26.364  0.00  0.00    +0.000 A 
ATOM     12  O   UNL     1     -44.628 -16.922 -26.271  0.00  0.00    +0.000 OA
BRANCH   8  13
ATOM     13  C   UNL     1     -45.654 -18.269 -24.497  0.00  0.00    +0.000 C 
ATOM     14  O   UNL     1     -46.244 -19.268 -24.987  0.00  0.00    +0.000 OA
ATOM     15  O   UNL     1     -45.150 -18.335 -23.204  0.00  0.00    +0.000 OA
ENDBRANCH   8  13
ENDBRANCH   2   4
BRANCH   1  17
ATOM     16  C   UNL     1     -45.655  -8.978 -28.540  0.00  0.00    +0.000 C 
ATOM     17  C   UNL     1     -46.866  -9.824 -28.946  0.00  0.00    +0.000 C 
ATOM     18  C   UNL     1     -47.342  -9.497 -30.361  0.00  0.00    +0.000 C 
ATOM     19  C   UNL     1     -46.252  -9.702 -31.409  0.00  0.00    +0.000 C 
ATOM     20  C   UNL     1     -44.929  -9.144 -30.978  0.00  0.00    +0.000 C 
ATOM     21  C   UNL     1     -43.281  -8.535 -29.196  0.00  0.00    +0.000 C 
ATOM     22  N   UNL     1     -44.635  -8.896 -29.591  0.00  0.00    +0.000 N 
ATOM     23  O   UNL     1     -44.047  -8.944 -31.856  0.00  0.00    +0.000 OA
BRANCH  16  26
ATOM     24  C   UNL     1     -47.177  -4.233 -28.614  0.00  0.00    +0.000 C 
ATOM     25  C   UNL     1     -46.471  -6.586 -28.946  0.00  0.00    +0.000 A 
ATOM     26  C   UNL     1     -46.086  -7.610 -28.107  0.00  0.00    +0.000 A 
ATOM     27  C   UNL     1     -46.123  -7.116 -26.814  0.00  0.00    +0.000 A 
ATOM     28  N   UNL     1     -46.734  -5.535 -28.153  0.00  0.00    +0.000 N 
ATOM     29  N   UNL     1     -46.531  -5.834 -26.882  0.00  0.00    +0.000 NA
ENDBRANCH  16  26
ENDBRANCH   1  17
TORSDOF 4
ENDMDL
