MODEL 1
REMARK VINA RESULT:      -6.3      0.000      0.000
REMARK  Name = ZINC000011118204 ZINC11118204 ChemDiv-D289-0016 MCULE-3876804959 MolPort-006-798-638 PubChem-17200660
REMARK  6 active torsions:
REMARK  status: ('A' for Active; 'I' for Inactive)
REMARK    1  A    between atoms: C_2  and  C_3
REMARK    2  A    between atoms: C_7  and  C_8
REMARK    3  A    between atoms: C_7  and  N_20
REMARK    4  A    between atoms: C_9  and  C_10
REMARK    5  A    between atoms: C_9  and  N_21
REMARK    6  A    between atoms: C_10  and  O_23
REMARK                            x       y       z     vdW  Elec       q    Type
REMARK                         _______ _______ _______ _____ _____    ______ ____
ROOT
ATOM      1  C   UNL     1     -47.326  -3.006 -24.716  0.00  0.00    +0.000 A 
ATOM      2  C   UNL     1     -47.639  -2.336 -25.896  0.00  0.00    +0.000 A 
ATOM      3  C   UNL     1     -47.592  -3.013 -27.112  0.00  0.00    +0.000 A 
ATOM      4  C   UNL     1     -47.236  -4.371 -27.179  0.00  0.00    +0.000 A 
ATOM      5  C   UNL     1     -46.285  -7.264 -27.092  0.00  0.00    +0.000 A 
ATOM      6  C   UNL     1     -46.549  -6.513 -25.929  0.00  0.00    +0.000 A 
ATOM      7  C   UNL     1     -46.440  -7.158 -24.683  0.00  0.00    +0.000 A 
ATOM      8  C   UNL     1     -46.085  -8.507 -24.596  0.00  0.00    +0.000 A 
ATOM      9  C   UNL     1     -45.829  -9.235 -25.756  0.00  0.00    +0.000 A 
ATOM     10  C   UNL     1     -45.928  -8.614 -27.002  0.00  0.00    +0.000 A 
ATOM     11  C   UNL     1     -46.922  -5.065 -25.976  0.00  0.00    +0.000 A 
ATOM     12  C   UNL     1     -46.980  -4.357 -24.760  0.00  0.00    +0.000 A 
ATOM     13  N   UNL     1     -47.207  -5.021 -28.465  0.00  0.00    +0.000 N 
ATOM     14  O   UNL     1     -45.016  -6.292 -29.220  0.00  0.00    +0.000 OA
ATOM     15  O   UNL     1     -47.182  -7.413 -29.584  0.00  0.00    +0.000 OA
ATOM     16  S   UNL     1     -46.391  -6.525 -28.664  0.00  0.00    +0.000 S 
ENDROOT
BRANCH   1  18
ATOM     17  C   UNL     1     -47.003  -3.199 -22.271  0.00  0.00    +0.000 C 
ATOM     18  C   UNL     1     -47.397  -2.282 -23.415  0.00  0.00    +0.000 C 
ENDBRANCH   1  18
BRANCH  13  19
ATOM     19  C   UNL     1     -47.756  -4.386 -29.661  0.00  0.00    +0.000 C 
BRANCH  19  20
ATOM     20  C   UNL     1     -46.656  -3.896 -30.540  0.00  0.00    +0.000 C 
ATOM     21  N   UNL     1     -46.476  -4.468 -31.836  0.00  0.00    +0.000 NA
ATOM     22  O   UNL     1     -45.895  -2.980 -30.132  0.00  0.00    +0.000 OA
BRANCH  21  23
ATOM     23  C   UNL     1     -45.424  -4.025 -32.736  0.00  0.00    +0.000 C 
BRANCH  23  24
ATOM     24  C   UNL     1     -45.903  -2.828 -33.535  0.00  0.00    +0.000 C 
BRANCH  24  26
ATOM     25  C   UNL     1     -44.427  -1.306 -32.928  0.00  0.00    +0.000 C 
ATOM     26  O   UNL     1     -44.809  -2.101 -34.007  0.00  0.00    +0.000 OA
ENDBRANCH  24  26
ENDBRANCH  23  24
ENDBRANCH  21  23
ENDBRANCH  19  20
ENDBRANCH  13  19
TORSDOF 6
ENDMDL
MODEL 2
REMARK VINA RESULT:      -5.9      1.790      2.404
REMARK  Name = ZINC000011118204 ZINC11118204 ChemDiv-D289-0016 MCULE-3876804959 MolPort-006-798-638 PubChem-17200660
REMARK  6 active torsions:
REMARK  status: ('A' for Active; 'I' for Inactive)
REMARK    1  A    between atoms: C_2  and  C_3
REMARK    2  A    between atoms: C_7  and  C_8
REMARK    3  A    between atoms: C_7  and  N_20
REMARK    4  A    between atoms: C_9  and  C_10
REMARK    5  A    between atoms: C_9  and  N_21
REMARK    6  A    between atoms: C_10  and  O_23
REMARK                            x       y       z     vdW  Elec       q    Type
REMARK                         _______ _______ _______ _____ _____    ______ ____
ROOT
ATOM      1  C   UNL     1     -46.911  -4.884 -25.923  0.00  0.00    +0.000 A 
ATOM      2  C   UNL     1     -47.415  -3.888 -26.754  0.00  0.00    +0.000 A 
ATOM      3  C   UNL     1     -47.290  -4.007 -28.136  0.00  0.00    +0.000 A 
ATOM      4  C   UNL     1     -46.663  -5.123 -28.719  0.00  0.00    +0.000 A 
ATOM      5  C   UNL     1     -45.127  -7.547 -29.742  0.00  0.00    +0.000 A 
ATOM      6  C   UNL     1     -45.483  -7.385 -28.388  0.00  0.00    +0.000 A 
ATOM      7  C   UNL     1     -45.180  -8.428 -27.493  0.00  0.00    +0.000 A 
ATOM      8  C   UNL     1     -44.548  -9.595 -27.930  0.00  0.00    +0.000 A 
ATOM      9  C   UNL     1     -44.205  -9.739 -29.273  0.00  0.00    +0.000 A 
ATOM     10  C   UNL     1     -44.494  -8.716 -30.177  0.00  0.00    +0.000 A 
ATOM     11  C   UNL     1     -46.151  -6.149 -27.875  0.00  0.00    +0.000 A 
ATOM     12  C   UNL     1     -46.294  -6.004 -26.481  0.00  0.00    +0.000 A 
ATOM     13  N   UNL     1     -46.565  -5.195 -30.155  0.00  0.00    +0.000 N 
ATOM     14  O   UNL     1     -44.197  -5.575 -31.268  0.00  0.00    +0.000 OA
ATOM     15  O   UNL     1     -46.098  -6.894 -32.123  0.00  0.00    +0.000 OA
ATOM     16  S   UNL     1     -45.464  -6.292 -30.899  0.00  0.00    +0.000 S 
ENDROOT
BRANCH   1  18
ATOM     17  C   UNL     1     -47.324  -3.317 -24.053  0.00  0.00    +0.000 C 
ATOM     18  C   UNL     1     -47.066  -4.760 -24.445  0.00  0.00    +0.000 C 
ENDBRANCH   1  18
BRANCH  13  19
ATOM     19  C   UNL     1     -47.293  -4.274 -31.023  0.00  0.00    +0.000 C 
BRANCH  19  20
ATOM     20  C   UNL     1     -46.375  -3.224 -31.553  0.00  0.00    +0.000 C 
ATOM     21  N   UNL     1     -46.036  -3.213 -32.940  0.00  0.00    +0.000 NA
ATOM     22  O   UNL     1     -45.909  -2.354 -30.772  0.00  0.00    +0.000 OA
BRANCH  21  23
ATOM     23  C   UNL     1     -45.152  -2.210 -33.510  0.00  0.00    +0.000 C 
BRANCH  23  24
ATOM     24  C   UNL     1     -43.744  -2.766 -33.611  0.00  0.00    +0.000 C 
BRANCH  24  26
ATOM     25  C   UNL     1     -43.478  -0.692 -32.909  0.00  0.00    +0.000 C 
ATOM     26  O   UNL     1     -42.855  -1.938 -32.923  0.00  0.00    +0.000 OA
ENDBRANCH  24  26
ENDBRANCH  23  24
ENDBRANCH  21  23
ENDBRANCH  19  20
ENDBRANCH  13  19
TORSDOF 6
ENDMDL
MODEL 3
REMARK VINA RESULT:      -5.8      4.353      8.945
REMARK  Name = ZINC000011118204 ZINC11118204 ChemDiv-D289-0016 MCULE-3876804959 MolPort-006-798-638 PubChem-17200660
REMARK  6 active torsions:
REMARK  status: ('A' for Active; 'I' for Inactive)
REMARK    1  A    between atoms: C_2  and  C_3
REMARK    2  A    between atoms: C_7  and  C_8
REMARK    3  A    between atoms: C_7  and  N_20
REMARK    4  A    between atoms: C_9  and  C_10
REMARK    5  A    between atoms: C_9  and  N_21
REMARK    6  A    between atoms: C_10  and  O_23
REMARK                            x       y       z     vdW  Elec       q    Type
REMARK                         _______ _______ _______ _____ _____    ______ ____
ROOT
ATOM      1  C   UNL     1     -41.708  -5.023 -35.425  0.00  0.00    +0.000 A 
ATOM      2  C   UNL     1     -42.426  -6.212 -35.507  0.00  0.00    +0.000 A 
ATOM      3  C   UNL     1     -43.625  -6.349 -34.812  0.00  0.00    +0.000 A 
ATOM      4  C   UNL     1     -44.136  -5.303 -34.024  0.00  0.00    +0.000 A 
ATOM      5  C   UNL     1     -44.960  -2.963 -32.256  0.00  0.00    +0.000 A 
ATOM      6  C   UNL     1     -43.869  -2.899 -33.147  0.00  0.00    +0.000 A 
ATOM      7  C   UNL     1     -43.187  -1.674 -33.274  0.00  0.00    +0.000 A 
ATOM      8  C   UNL     1     -43.579  -0.550 -32.544  0.00  0.00    +0.000 A 
ATOM      9  C   UNL     1     -44.660  -0.630 -31.669  0.00  0.00    +0.000 A 
ATOM     10  C   UNL     1     -45.348  -1.836 -31.525  0.00  0.00    +0.000 A 
ATOM     11  C   UNL     1     -43.410  -4.081 -33.940  0.00  0.00    +0.000 A 
ATOM     12  C   UNL     1     -42.202  -3.969 -34.656  0.00  0.00    +0.000 A 
ATOM     13  N   UNL     1     -45.383  -5.500 -33.329  0.00  0.00    +0.000 N 
ATOM     14  O   UNL     1     -45.490  -5.073 -30.723  0.00  0.00    +0.000 OA
ATOM     15  O   UNL     1     -47.316  -4.172 -32.115  0.00  0.00    +0.000 OA
ATOM     16  S   UNL     1     -45.840  -4.448 -32.043  0.00  0.00    +0.000 S 
ENDROOT
BRANCH   1  18
ATOM     17  C   UNL     1     -40.603  -5.372 -37.611  0.00  0.00    +0.000 C 
ATOM     18  C   UNL     1     -40.435  -4.875 -36.187  0.00  0.00    +0.000 C 
ENDBRANCH   1  18
BRANCH  13  19
ATOM     19  C   UNL     1     -46.243  -6.650 -33.601  0.00  0.00    +0.000 C 
BRANCH  19  20
ATOM     20  C   UNL     1     -46.225  -7.595 -32.448  0.00  0.00    +0.000 C 
ATOM     21  N   UNL     1     -47.439  -7.898 -31.761  0.00  0.00    +0.000 NA
ATOM     22  O   UNL     1     -45.137  -8.120 -32.091  0.00  0.00    +0.000 OA
BRANCH  21  23
ATOM     23  C   UNL     1     -47.480  -8.818 -30.635  0.00  0.00    +0.000 C 
BRANCH  23  24
ATOM     24  C   UNL     1     -47.374  -8.042 -29.336  0.00  0.00    +0.000 C 
BRANCH  24  26
ATOM     25  C   UNL     1     -46.540  -9.927 -28.552  0.00  0.00    +0.000 C 
ATOM     26  O   UNL     1     -47.452  -8.916 -28.251  0.00  0.00    +0.000 OA
ENDBRANCH  24  26
ENDBRANCH  23  24
ENDBRANCH  21  23
ENDBRANCH  19  20
ENDBRANCH  13  19
TORSDOF 6
ENDMDL
