MODEL 1
REMARK VINA RESULT:      -8.0      0.000      0.000
REMARK  Name = ZINC000019982589 CSC028163649 MCULE-3141841571 MolPort-009-612-954 PubChem-23409250
REMARK  5 active torsions:
REMARK  status: ('A' for Active; 'I' for Inactive)
REMARK    1  A    between atoms: C_6  and  N_25
REMARK    2  A    between atoms: C_7  and  C_8
REMARK    3  A    between atoms: C_8  and  N_26
REMARK    4  A    between atoms: C_9  and  C_10
REMARK    5  A    between atoms: C_10  and  N_27
REMARK                            x       y       z     vdW  Elec       q    Type
REMARK                         _______ _______ _______ _____ _____    ______ ____
ROOT
ATOM      1  C   UNL     1     -44.917  -6.607 -30.222  0.00  0.00    +0.000 A 
ATOM      2  C   UNL     1     -43.724  -5.094 -31.551  0.00  0.00    +0.000 A 
ATOM      3  C   UNL     1     -44.587  -4.067 -31.233  0.00  0.00    +0.000 A 
ATOM      4  C   UNL     1     -44.234  -2.856 -31.848  0.00  0.00    +0.000 A 
ATOM      5  C   UNL     1     -43.110  -2.985 -32.667  0.00  0.00    +0.000 A 
ATOM      6  C   UNL     1     -42.460  -1.839 -33.378  0.00  0.00    +0.000 C 
ATOM      7  C   UNL     1     -43.439  -0.669 -33.521  0.00  0.00    +0.000 C 
ATOM      8  C   UNL     1     -44.134  -0.377 -32.188  0.00  0.00    +0.000 C 
ATOM      9  C   UNL     1     -45.000  -1.566 -31.757  0.00  0.00    +0.000 C 
ATOM     10  C   UNL     1     -45.659  -4.339 -30.377  0.00  0.00    +0.000 A 
ATOM     11  N   UNL     1     -45.811  -5.611 -29.882  0.00  0.00    +0.000 N 
ATOM     12  N   UNL     1     -43.878  -6.343 -31.062  0.00  0.00    +0.000 NA
ATOM     13  O   UNL     1     -46.474  -3.427 -30.066  0.00  0.00    +0.000 OA
ATOM     14  S   UNL     1     -42.516  -4.566 -32.595  0.00  0.00    +0.000 S 
ENDROOT
BRANCH  11  15
ATOM     15  C   UNL     1     -46.925  -5.901 -28.978  0.00  0.00    +0.000 C 
BRANCH  15  16
ATOM     16  C   UNL     1     -46.642  -5.366 -27.615  0.00  0.00    +0.000 C 
ATOM     17  N   UNL     1     -47.484  -4.338 -27.077  0.00  0.00    +0.000 NA
ATOM     18  O   UNL     1     -45.687  -5.844 -26.948  0.00  0.00    +0.000 OA
BRANCH  17  24
ATOM     19  C   UNL     1     -47.090  -4.918 -22.193  0.00  0.00    +0.000 C 
ATOM     20  C   UNL     1     -47.190  -4.024 -23.376  0.00  0.00    +0.000 A 
ATOM     21  C   UNL     1     -47.183  -2.637 -23.206  0.00  0.00    +0.000 A 
ATOM     22  C   UNL     1     -47.276  -1.797 -24.319  0.00  0.00    +0.000 A 
ATOM     23  C   UNL     1     -47.376  -2.346 -25.601  0.00  0.00    +0.000 A 
ATOM     24  C   UNL     1     -47.384  -3.738 -25.778  0.00  0.00    +0.000 A 
ATOM     25  C   UNL     1     -47.290  -4.571 -24.658  0.00  0.00    +0.000 A 
ENDBRANCH  17  24
ENDBRANCH  15  16
ENDBRANCH  11  15
BRANCH   1  26
ATOM     26  C   UNL     1     -45.080  -8.007 -29.716  0.00  0.00    +0.000 C 
BRANCH  26  31
ATOM     27  C   UNL     1     -46.825  -9.567 -29.794  0.00  0.00    +0.000 C 
ATOM     28  C   UNL     1     -46.573 -11.033 -30.079  0.00  0.00    +0.000 C 
ATOM     29  C   UNL     1     -45.756 -11.044 -31.338  0.00  0.00    +0.000 C 
ATOM     30  C   UNL     1     -45.065  -9.704 -31.332  0.00  0.00    +0.000 C 
ATOM     31  N   UNL     1     -45.927  -8.767 -30.622  0.00  0.00    +0.000 NA
ENDBRANCH  26  31
ENDBRANCH   1  26
TORSDOF 5
ENDMDL
MODEL 2
REMARK VINA RESULT:      -7.4      2.292      6.000
REMARK  Name = ZINC000019982589 CSC028163649 MCULE-3141841571 MolPort-009-612-954 PubChem-23409250
REMARK  5 active torsions:
REMARK  status: ('A' for Active; 'I' for Inactive)
REMARK    1  A    between atoms: C_6  and  N_25
REMARK    2  A    between atoms: C_7  and  C_8
REMARK    3  A    between atoms: C_8  and  N_26
REMARK    4  A    between atoms: C_9  and  C_10
REMARK    5  A    between atoms: C_10  and  N_27
REMARK                            x       y       z     vdW  Elec       q    Type
REMARK                         _______ _______ _______ _____ _____    ______ ____
ROOT
ATOM      1  C   UNL     1     -45.546  -4.501 -33.244  0.00  0.00    +0.000 A 
ATOM      2  C   UNL     1     -44.647  -6.516 -34.027  0.00  0.00    +0.000 A 
ATOM      3  C   UNL     1     -45.461  -7.253 -33.193  0.00  0.00    +0.000 A 
ATOM      4  C   UNL     1     -45.263  -8.636 -33.330  0.00  0.00    +0.000 A 
ATOM      5  C   UNL     1     -44.262  -8.939 -34.255  0.00  0.00    +0.000 A 
ATOM      6  C   UNL     1     -43.900 -10.332 -34.665  0.00  0.00    +0.000 C 
ATOM      7  C   UNL     1     -44.362 -11.342 -33.609  0.00  0.00    +0.000 C 
ATOM      8  C   UNL     1     -45.814 -11.076 -33.203  0.00  0.00    +0.000 C 
ATOM      9  C   UNL     1     -45.944  -9.707 -32.525  0.00  0.00    +0.000 C 
ATOM     10  C   UNL     1     -46.344  -6.571 -32.350  0.00  0.00    +0.000 A 
ATOM     11  N   UNL     1     -46.373  -5.197 -32.386  0.00  0.00    +0.000 N 
ATOM     12  N   UNL     1     -44.680  -5.166 -34.058  0.00  0.00    +0.000 NA
ATOM     13  O   UNL     1     -47.102  -7.209 -31.568  0.00  0.00    +0.000 OA
ATOM     14  S   UNL     1     -43.658  -7.518 -34.945  0.00  0.00    +0.000 S 
ENDROOT
BRANCH  11  15
ATOM     15  C   UNL     1     -47.302  -4.477 -31.514  0.00  0.00    +0.000 C 
BRANCH  15  16
ATOM     16  C   UNL     1     -46.805  -4.479 -30.108  0.00  0.00    +0.000 C 
ATOM     17  N   UNL     1     -47.741  -4.322 -29.034  0.00  0.00    +0.000 NA
ATOM     18  O   UNL     1     -45.577  -4.647 -29.887  0.00  0.00    +0.000 OA
BRANCH  17  24
ATOM     19  C   UNL     1     -47.486  -1.875 -24.757  0.00  0.00    +0.000 C 
ATOM     20  C   UNL     1     -47.322  -3.135 -25.527  0.00  0.00    +0.000 A 
ATOM     21  C   UNL     1     -46.895  -4.298 -24.881  0.00  0.00    +0.000 A 
ATOM     22  C   UNL     1     -46.742  -5.483 -25.605  0.00  0.00    +0.000 A 
ATOM     23  C   UNL     1     -47.018  -5.504 -26.975  0.00  0.00    +0.000 A 
ATOM     24  C   UNL     1     -47.447  -4.340 -27.630  0.00  0.00    +0.000 A 
ATOM     25  C   UNL     1     -47.597  -3.158 -26.897  0.00  0.00    +0.000 A 
ENDBRANCH  17  24
ENDBRANCH  15  16
ENDBRANCH  11  15
BRANCH   1  26
ATOM     26  C   UNL     1     -45.542  -3.004 -33.279  0.00  0.00    +0.000 C 
BRANCH  26  31
ATOM     27  C   UNL     1     -45.002  -1.488 -31.579  0.00  0.00    +0.000 C 
ATOM     28  C   UNL     1     -44.355  -0.151 -31.877  0.00  0.00    +0.000 C 
ATOM     29  C   UNL     1     -43.165  -0.482 -32.728  0.00  0.00    +0.000 C 
ATOM     30  C   UNL     1     -43.542  -1.787 -33.384  0.00  0.00    +0.000 C 
ATOM     31  N   UNL     1     -44.441  -2.491 -32.479  0.00  0.00    +0.000 NA
ENDBRANCH  26  31
ENDBRANCH   1  26
TORSDOF 5
ENDMDL
MODEL 3
REMARK VINA RESULT:      -7.3      1.783      5.949
REMARK  Name = ZINC000019982589 CSC028163649 MCULE-3141841571 MolPort-009-612-954 PubChem-23409250
REMARK  5 active torsions:
REMARK  status: ('A' for Active; 'I' for Inactive)
REMARK    1  A    between atoms: C_6  and  N_25
REMARK    2  A    between atoms: C_7  and  C_8
REMARK    3  A    between atoms: C_8  and  N_26
REMARK    4  A    between atoms: C_9  and  C_10
REMARK    5  A    between atoms: C_10  and  N_27
REMARK                            x       y       z     vdW  Elec       q    Type
REMARK                         _______ _______ _______ _____ _____    ______ ____
ROOT
ATOM      1  C   UNL     1     -45.171  -6.319 -30.647  0.00  0.00    +0.000 A 
ATOM      2  C   UNL     1     -44.511  -8.564 -30.717  0.00  0.00    +0.000 A 
ATOM      3  C   UNL     1     -45.608  -8.954 -29.978  0.00  0.00    +0.000 A 
ATOM      4  C   UNL     1     -45.642 -10.339 -29.755  0.00  0.00    +0.000 A 
ATOM      5  C   UNL     1     -44.538 -10.993 -30.306  0.00  0.00    +0.000 A 
ATOM      6  C   UNL     1     -44.359 -12.479 -30.296  0.00  0.00    +0.000 C 
ATOM      7  C   UNL     1     -45.216 -13.118 -29.199  0.00  0.00    +0.000 C 
ATOM      8  C   UNL     1     -46.648 -12.575 -29.243  0.00  0.00    +0.000 C 
ATOM      9  C   UNL     1     -46.667 -11.074 -28.935  0.00  0.00    +0.000 C 
ATOM     10  C   UNL     1     -46.510  -7.973 -29.556  0.00  0.00    +0.000 A 
ATOM     11  N   UNL     1     -46.278  -6.662 -29.897  0.00  0.00    +0.000 N 
ATOM     12  N   UNL     1     -44.287  -7.274 -31.050  0.00  0.00    +0.000 NA
ATOM     13  O   UNL     1     -47.523  -8.288 -28.873  0.00  0.00    +0.000 OA
ATOM     14  S   UNL     1     -43.549  -9.884 -31.113  0.00  0.00    +0.000 S 
ENDROOT
BRANCH  11  15
ATOM     15  C   UNL     1     -47.224  -5.631 -29.469  0.00  0.00    +0.000 C 
BRANCH  15  16
ATOM     16  C   UNL     1     -46.849  -5.106 -28.125  0.00  0.00    +0.000 C 
ATOM     17  N   UNL     1     -47.703  -4.151 -27.481  0.00  0.00    +0.000 NA
ATOM     18  O   UNL     1     -45.803  -5.529 -27.564  0.00  0.00    +0.000 OA
BRANCH  17  24
ATOM     19  C   UNL     1     -46.992  -4.813 -22.643  0.00  0.00    +0.000 C 
ATOM     20  C   UNL     1     -47.170  -3.900 -23.802  0.00  0.00    +0.000 A 
ATOM     21  C   UNL     1     -47.154  -2.516 -23.609  0.00  0.00    +0.000 A 
ATOM     22  C   UNL     1     -47.320  -1.657 -24.699  0.00  0.00    +0.000 A 
ATOM     23  C   UNL     1     -47.502  -2.185 -25.981  0.00  0.00    +0.000 A 
ATOM     24  C   UNL     1     -47.520  -3.574 -26.181  0.00  0.00    +0.000 A 
ATOM     25  C   UNL     1     -47.353  -4.425 -25.084  0.00  0.00    +0.000 A 
ENDBRANCH  17  24
ENDBRANCH  15  16
ENDBRANCH  11  15
BRANCH   1  26
ATOM     26  C   UNL     1     -44.884  -4.893 -31.006  0.00  0.00    +0.000 C 
BRANCH  26  31
ATOM     27  C   UNL     1     -44.108  -3.736 -32.888  0.00  0.00    +0.000 C 
ATOM     28  C   UNL     1     -44.803  -2.493 -33.403  0.00  0.00    +0.000 C 
ATOM     29  C   UNL     1     -46.243  -2.890 -33.546  0.00  0.00    +0.000 C 
ATOM     30  C   UNL     1     -46.409  -4.012 -32.552  0.00  0.00    +0.000 C 
ATOM     31  N   UNL     1     -45.120  -4.682 -32.425  0.00  0.00    +0.000 NA
ENDBRANCH  26  31
ENDBRANCH   1  26
TORSDOF 5
ENDMDL
