MODEL 1
REMARK VINA RESULT:      -6.5      0.000      0.000
REMARK  Name = ZINC000002118541 MCULE-8742096214 MolPort-002-525-345
REMARK  8 active torsions:
REMARK  status: ('A' for Active; 'I' for Inactive)
REMARK    1  A    between atoms: CG_2  and  CB_3
REMARK    2  A    between atoms: CG_2  and  SD_24
REMARK    3  A    between atoms: CB_3  and  CA_4
REMARK    4  A    between atoms: CA_4  and  C_23
REMARK    5  A    between atoms: CA_4  and  N_25
REMARK    6  A    between atoms: C_5  and  C_6
REMARK    7  A    between atoms: C_6  and  C_7
REMARK    8  A    between atoms: C_15  and  C_16
REMARK                            x       y       z     vdW  Elec       q    Type
REMARK                         _______ _______ _______ _____ _____    ______ ____
ROOT
ATOM      1  C   UNK A   0     -47.015  -5.578 -28.820  0.00  0.00    +0.000 A 
ATOM      2  C   UNK A   0     -46.789  -5.971 -27.489  0.00  0.00    +0.000 A 
ATOM      3  C   UNK A   0     -46.388  -7.381 -27.170  0.00  0.00    +0.000 C 
ATOM      4  C   UNK A   0     -46.943  -5.024 -26.463  0.00  0.00    +0.000 A 
ATOM      5  C   UNK A   0     -46.732  -5.359 -25.109  0.00  0.00    +0.000 A 
ATOM      6  C   UNK A   0     -46.907  -4.356 -24.158  0.00  0.00    +0.000 A 
ATOM      7  C   UNK A   0     -47.268  -3.085 -24.501  0.00  0.00    +0.000 A 
ATOM      8  C   UNK A   0     -47.080  -3.068 -22.373  0.00  0.00    +0.000 A 
ATOM      9  C   UNK A   0     -46.779  -4.369 -22.784  0.00  0.00    +0.000 A 
ATOM     10  C   UNK A   0     -47.485  -2.712 -25.825  0.00  0.00    +0.000 A 
ATOM     11  C   UNK A   0     -47.320  -3.695 -26.818  0.00  0.00    +0.000 A 
ATOM     12  C   UNK A   0     -47.386  -4.248 -29.083  0.00  0.00    +0.000 A 
ATOM     13  O   UNK A   0     -47.367  -2.331 -23.435  0.00  0.00    +0.000 OA
ATOM     14  O   UNK A   0     -47.520  -3.374 -28.090  0.00  0.00    +0.000 OA
ATOM     15  O   UNK A   0     -47.595  -3.868 -30.266  0.00  0.00    +0.000 OA
ENDROOT
BRANCH   9  16
ATOM     16  C   UNK A   0     -46.397  -5.541 -21.909  0.00  0.00    +0.000 C 
ATOM     17  C   UNK A   0     -46.061  -5.052 -20.512  0.00  0.00    +0.000 C 
ATOM     18  C   UNK A   0     -45.188  -6.277 -22.461  0.00  0.00    +0.000 C 
ATOM     19  C   UNK A   0     -47.553  -6.520 -21.825  0.00  0.00    +0.000 C 
ENDBRANCH   9  16
BRANCH   1  20
ATOM     20  C   UNK A   0     -46.894  -6.565 -29.947  0.00  0.00    +0.000 C 
BRANCH  20  21
ATOM     21  C   UNK A   0     -45.802  -6.163 -30.877  0.00  0.00    +0.000 C 
ATOM     22  N   MET A   1     -44.580  -5.643 -30.351  0.00  0.00    +0.000 NA
ATOM     23  O   UNK A   0     -45.956  -6.306 -32.119  0.00  0.00    +0.000 OA
BRANCH  22  24
ATOM     24  CA  MET A   1     -43.466  -5.272 -31.210  0.00  0.00    +0.000 C 
BRANCH  24  25
ATOM     25  C   MET A   1     -42.177  -5.541 -30.507  0.00  0.00    +0.000 C 
ATOM     26  O   MET A   1     -40.986  -5.495 -31.217  0.00  0.00    +0.000 OA
ATOM     27  OXT MET A   1     -42.164  -5.817 -29.278  0.00  0.00    +0.000 OA
ENDBRANCH  24  25
BRANCH  24  28
ATOM     28  CB  MET A   1     -43.561  -3.803 -31.599  0.00  0.00    +0.000 C 
BRANCH  28  29
ATOM     29  CG  MET A   1     -43.746  -3.645 -33.099  0.00  0.00    +0.000 C 
BRANCH  29  31
ATOM     30  CE  MET A   1     -46.257  -3.008 -33.442  0.00  0.00    +0.000 C 
ATOM     31  SD  MET A   1     -44.673  -2.126 -33.467  0.00  0.00    +0.000 S 
ENDBRANCH  29  31
ENDBRANCH  28  29
ENDBRANCH  24  28
ENDBRANCH  22  24
ENDBRANCH  20  21
ENDBRANCH   1  20
TORSDOF 8
ENDMDL
MODEL 2
REMARK VINA RESULT:      -6.2      1.985      2.741
REMARK  Name = ZINC000002118541 MCULE-8742096214 MolPort-002-525-345
REMARK  8 active torsions:
REMARK  status: ('A' for Active; 'I' for Inactive)
REMARK    1  A    between atoms: CG_2  and  CB_3
REMARK    2  A    between atoms: CG_2  and  SD_24
REMARK    3  A    between atoms: CB_3  and  CA_4
REMARK    4  A    between atoms: CA_4  and  C_23
REMARK    5  A    between atoms: CA_4  and  N_25
REMARK    6  A    between atoms: C_5  and  C_6
REMARK    7  A    between atoms: C_6  and  C_7
REMARK    8  A    between atoms: C_15  and  C_16
REMARK                            x       y       z     vdW  Elec       q    Type
REMARK                         _______ _______ _______ _____ _____    ______ ____
ROOT
ATOM      1  C   UNK A   0     -46.931  -5.155 -27.357  0.00  0.00    +0.000 A 
ATOM      2  C   UNK A   0     -46.768  -5.299 -25.967  0.00  0.00    +0.000 A 
ATOM      3  C   UNK A   0     -46.320  -6.607 -25.386  0.00  0.00    +0.000 C 
ATOM      4  C   UNK A   0     -47.026  -4.198 -25.134  0.00  0.00    +0.000 A 
ATOM      5  C   UNK A   0     -46.881  -4.281 -23.733  0.00  0.00    +0.000 A 
ATOM      6  C   UNK A   0     -47.159  -3.141 -22.982  0.00  0.00    +0.000 A 
ATOM      7  C   UNK A   0     -47.559  -1.971 -23.562  0.00  0.00    +0.000 A 
ATOM      8  C   UNK A   0     -47.499  -1.575 -21.463  0.00  0.00    +0.000 A 
ATOM      9  C   UNK A   0     -47.113  -2.909 -21.623  0.00  0.00    +0.000 A 
ATOM     10  C   UNK A   0     -47.713  -1.846 -24.940  0.00  0.00    +0.000 A 
ATOM     11  C   UNK A   0     -47.444  -2.974 -25.735  0.00  0.00    +0.000 A 
ATOM     12  C   UNK A   0     -47.348  -3.913 -27.868  0.00  0.00    +0.000 A 
ATOM     13  O   UNK A   0     -47.756  -1.051 -22.651  0.00  0.00    +0.000 OA
ATOM     14  O   UNK A   0     -47.582  -2.890 -27.052  0.00  0.00    +0.000 OA
ATOM     15  O   UNK A   0     -47.504  -3.756 -29.108  0.00  0.00    +0.000 OA
ENDROOT
BRANCH   9  16
ATOM     16  C   UNK A   0     -46.729  -3.888 -20.538  0.00  0.00    +0.000 C 
ATOM     17  C   UNK A   0     -47.756  -5.003 -20.464  0.00  0.00    +0.000 C 
ATOM     18  C   UNK A   0     -46.658  -3.214 -19.178  0.00  0.00    +0.000 C 
ATOM     19  C   UNK A   0     -45.370  -4.489 -20.843  0.00  0.00    +0.000 C 
ENDBRANCH   9  16
BRANCH   1  20
ATOM     20  C   UNK A   0     -46.698  -6.314 -28.285  0.00  0.00    +0.000 C 
BRANCH  20  21
ATOM     21  C   UNK A   0     -45.380  -6.176 -28.968  0.00  0.00    +0.000 C 
ATOM     22  N   MET A   1     -45.335  -5.913 -30.371  0.00  0.00    +0.000 NA
ATOM     23  O   UNK A   0     -44.317  -6.269 -28.298  0.00  0.00    +0.000 OA
BRANCH  22  24
ATOM     24  CA  MET A   1     -44.079  -5.729 -31.082  0.00  0.00    +0.000 C 
BRANCH  24  25
ATOM     25  C   MET A   1     -43.891  -4.284 -31.405  0.00  0.00    +0.000 C 
ATOM     26  O   MET A   1     -44.865  -3.366 -31.039  0.00  0.00    +0.000 OA
ATOM     27  OXT MET A   1     -42.859  -3.893 -32.013  0.00  0.00    +0.000 OA
ENDBRANCH  24  25
BRANCH  24  28
ATOM     28  CB  MET A   1     -44.061  -6.563 -32.355  0.00  0.00    +0.000 C 
BRANCH  28  29
ATOM     29  CG  MET A   1     -45.462  -6.731 -32.920  0.00  0.00    +0.000 C 
BRANCH  29  31
ATOM     30  CE  MET A   1     -47.272  -8.388 -32.021  0.00  0.00    +0.000 C 
ATOM     31  SD  MET A   1     -45.849  -8.493 -33.141  0.00  0.00    +0.000 S 
ENDBRANCH  29  31
ENDBRANCH  28  29
ENDBRANCH  24  28
ENDBRANCH  22  24
ENDBRANCH  20  21
ENDBRANCH   1  20
TORSDOF 8
ENDMDL
MODEL 3
REMARK VINA RESULT:      -6.0      4.125      8.589
REMARK  Name = ZINC000002118541 MCULE-8742096214 MolPort-002-525-345
REMARK  8 active torsions:
REMARK  status: ('A' for Active; 'I' for Inactive)
REMARK    1  A    between atoms: CG_2  and  CB_3
REMARK    2  A    between atoms: CG_2  and  SD_24
REMARK    3  A    between atoms: CB_3  and  CA_4
REMARK    4  A    between atoms: CA_4  and  C_23
REMARK    5  A    between atoms: CA_4  and  N_25
REMARK    6  A    between atoms: C_5  and  C_6
REMARK    7  A    between atoms: C_6  and  C_7
REMARK    8  A    between atoms: C_15  and  C_16
REMARK                            x       y       z     vdW  Elec       q    Type
REMARK                         _______ _______ _______ _____ _____    ______ ____
ROOT
ATOM      1  C   UNK A   0     -45.223  -4.200 -33.639  0.00  0.00    +0.000 A 
ATOM      2  C   UNK A   0     -43.832  -4.389 -33.554  0.00  0.00    +0.000 A 
ATOM      3  C   UNK A   0     -43.239  -5.757 -33.716  0.00  0.00    +0.000 C 
ATOM      4  C   UNK A   0     -43.006  -3.277 -33.319  0.00  0.00    +0.000 A 
ATOM      5  C   UNK A   0     -41.605  -3.404 -33.222  0.00  0.00    +0.000 A 
ATOM      6  C   UNK A   0     -40.863  -2.248 -32.986  0.00  0.00    +0.000 A 
ATOM      7  C   UNK A   0     -41.451  -1.023 -32.851  0.00  0.00    +0.000 A 
ATOM      8  C   UNK A   0     -39.356  -0.676 -32.625  0.00  0.00    +0.000 A 
ATOM      9  C   UNK A   0     -39.505  -2.048 -32.843  0.00  0.00    +0.000 A 
ATOM     10  C   UNK A   0     -42.830  -0.854 -32.941  0.00  0.00    +0.000 A 
ATOM     11  C   UNK A   0     -43.617  -1.996 -33.177  0.00  0.00    +0.000 A 
ATOM     12  C   UNK A   0     -45.743  -2.903 -33.486  0.00  0.00    +0.000 A 
ATOM     13  O   UNK A   0     -40.547  -0.100 -32.638  0.00  0.00    +0.000 OA
ATOM     14  O   UNK A   0     -44.935  -1.871 -33.267  0.00  0.00    +0.000 OA
ATOM     15  O   UNK A   0     -46.986  -2.704 -33.557  0.00  0.00    +0.000 OA
ENDROOT
BRANCH   9  16
ATOM     16  C   UNK A   0     -38.413  -3.090 -32.907  0.00  0.00    +0.000 C 
ATOM     17  C   UNK A   0     -38.015  -3.330 -34.352  0.00  0.00    +0.000 C 
ATOM     18  C   UNK A   0     -38.868  -4.411 -32.311  0.00  0.00    +0.000 C 
ATOM     19  C   UNK A   0     -37.198  -2.612 -32.134  0.00  0.00    +0.000 C 
ENDBRANCH   9  16
BRANCH   1  20
ATOM     20  C   UNK A   0     -46.147  -5.364 -33.858  0.00  0.00    +0.000 C 
BRANCH  20  21
ATOM     21  C   UNK A   0     -46.443  -6.043 -32.564  0.00  0.00    +0.000 C 
ATOM     22  N   MET A   1     -46.168  -5.373 -31.334  0.00  0.00    +0.000 NA
ATOM     23  O   UNK A   0     -46.957  -7.194 -32.567  0.00  0.00    +0.000 OA
BRANCH  22  24
ATOM     24  CA  MET A   1     -46.474  -5.970 -30.043  0.00  0.00    +0.000 C 
BRANCH  24  25
ATOM     25  C   MET A   1     -47.104  -4.951 -29.153  0.00  0.00    +0.000 C 
ATOM     26  O   MET A   1     -46.977  -5.070 -27.777  0.00  0.00    +0.000 OA
ATOM     27  OXT MET A   1     -47.756  -3.990 -29.641  0.00  0.00    +0.000 OA
ENDBRANCH  24  25
BRANCH  24  28
ATOM     28  CB  MET A   1     -45.211  -6.527 -29.401  0.00  0.00    +0.000 C 
BRANCH  28  29
ATOM     29  CG  MET A   1     -43.988  -5.727 -29.817  0.00  0.00    +0.000 C 
BRANCH  29  31
ATOM     30  CE  MET A   1     -43.252  -6.640 -27.482  0.00  0.00    +0.000 C 
ATOM     31  SD  MET A   1     -42.481  -6.461 -29.114  0.00  0.00    +0.000 S 
ENDBRANCH  29  31
ENDBRANCH  28  29
ENDBRANCH  24  28
ENDBRANCH  22  24
ENDBRANCH  20  21
ENDBRANCH   1  20
TORSDOF 8
ENDMDL
