MODEL 1
REMARK VINA RESULT:      -6.4      0.000      0.000
REMARK  Name = ZINC000033554565 MCULE-1829814183 MolPort-035-945-407
REMARK  7 active torsions:
REMARK  status: ('A' for Active; 'I' for Inactive)
REMARK    1  A    between atoms: C_2  and  C_3
REMARK    2  A    between atoms: C_2  and  N_25
REMARK    3  A    between atoms: C_3  and  C_4
REMARK    4  A    between atoms: C_4  and  O_29
REMARK    5  A    between atoms: C_6  and  C_16
REMARK    6  A    between atoms: C_17  and  N_28
REMARK    7  A    between atoms: C_23  and  O_32
REMARK                            x       y       z     vdW  Elec       q    Type
REMARK                         _______ _______ _______ _____ _____    ______ ____
ROOT
ATOM      1  C   UNL     1     -46.886  -5.389 -27.358  0.00  0.00    +0.000 A 
ATOM      2  C   UNL     1     -46.650  -7.046 -28.703  0.00  0.00    +0.000 A 
ATOM      3  C   UNL     1     -46.473  -7.574 -27.417  0.00  0.00    +0.000 A 
ATOM      4  C   UNL     1     -46.629  -6.477 -26.589  0.00  0.00    +0.000 A 
ATOM      5  C   UNL     1     -46.574  -6.352 -25.206  0.00  0.00    +0.000 A 
ATOM      6  C   UNL     1     -46.731  -4.960 -23.296  0.00  0.00    +0.000 A 
ATOM      7  C   UNL     1     -46.943  -3.716 -22.704  0.00  0.00    +0.000 A 
ATOM      8  C   UNL     1     -47.212  -2.611 -23.508  0.00  0.00    +0.000 A 
ATOM      9  C   UNL     1     -47.266  -2.751 -24.893  0.00  0.00    +0.000 A 
ATOM     10  C   UNL     1     -47.559  -1.554 -25.732  0.00  0.00    +0.000 C 
ATOM     11  C   UNL     1     -47.050  -4.016 -25.468  0.00  0.00    +0.000 A 
ATOM     12  N   UNL     1     -46.898  -5.709 -28.659  0.00  0.00    +0.000 N 
ATOM     13  N   UNL     1     -46.784  -5.111 -24.653  0.00  0.00    +0.000 N 
ATOM     14  N   UNL     1     -47.101  -4.164 -26.827  0.00  0.00    +0.000 NA
ATOM     15  O   UNL     1     -46.335  -7.362 -24.486  0.00  0.00    +0.000 OA
ENDROOT
BRANCH   2  16
ATOM     16  C   UNL     1     -46.590  -7.859 -29.933  0.00  0.00    +0.000 C 
ATOM     17  N   UNL     1     -45.485  -7.732 -30.836  0.00  0.00    +0.000 NA
ATOM     18  O   UNL     1     -47.498  -8.703 -30.163  0.00  0.00    +0.000 OA
BRANCH  17  19
ATOM     19  C   UNL     1     -45.457  -8.219 -32.183  0.00  0.00    +0.000 A 
ATOM     20  C   UNL     1     -44.755  -9.400 -32.446  0.00  0.00    +0.000 A 
ATOM     21  C   UNL     1     -44.686  -9.912 -33.743  0.00  0.00    +0.000 A 
ATOM     22  C   UNL     1     -43.963 -11.185 -34.003  0.00  0.00    +0.000 C 
ATOM     23  C   UNL     1     -45.310  -9.238 -34.794  0.00  0.00    +0.000 A 
ATOM     24  C   UNL     1     -45.990  -8.042 -34.549  0.00  0.00    +0.000 A 
ATOM     25  C   UNL     1     -46.060  -7.513 -33.248  0.00  0.00    +0.000 A 
BRANCH  25  27
ATOM     26  C   UNL     1     -46.781  -5.261 -33.990  0.00  0.00    +0.000 C 
ATOM     27  O   UNL     1     -46.688  -6.286 -33.009  0.00  0.00    +0.000 OA
ENDBRANCH  25  27
ENDBRANCH  17  19
ENDBRANCH   2  16
BRANCH  12  28
ATOM     28  C   UNL     1     -47.213  -4.807 -29.760  0.00  0.00    +0.000 C 
BRANCH  28  29
ATOM     29  C   UNL     1     -45.944  -4.155 -30.274  0.00  0.00    +0.000 C 
BRANCH  29  30
ATOM     30  C   UNL     1     -46.302  -3.037 -31.230  0.00  0.00    +0.000 C 
BRANCH  30  32
ATOM     31  C   UNL     1     -44.436  -1.957 -31.701  0.00  0.00    +0.000 C 
ATOM     32  O   UNL     1     -45.576  -1.893 -30.899  0.00  0.00    +0.000 OA
ENDBRANCH  30  32
ENDBRANCH  29  30
ENDBRANCH  28  29
ENDBRANCH  12  28
TORSDOF 7
ENDMDL
MODEL 2
REMARK VINA RESULT:      -6.2      0.976      2.007
REMARK  Name = ZINC000033554565 MCULE-1829814183 MolPort-035-945-407
REMARK  7 active torsions:
REMARK  status: ('A' for Active; 'I' for Inactive)
REMARK    1  A    between atoms: C_2  and  C_3
REMARK    2  A    between atoms: C_2  and  N_25
REMARK    3  A    between atoms: C_3  and  C_4
REMARK    4  A    between atoms: C_4  and  O_29
REMARK    5  A    between atoms: C_6  and  C_16
REMARK    6  A    between atoms: C_17  and  N_28
REMARK    7  A    between atoms: C_23  and  O_32
REMARK                            x       y       z     vdW  Elec       q    Type
REMARK                         _______ _______ _______ _____ _____    ______ ____
ROOT
ATOM      1  C   UNL     1     -46.936  -5.309 -27.392  0.00  0.00    +0.000 A 
ATOM      2  C   UNL     1     -46.692  -6.936 -28.772  0.00  0.00    +0.000 A 
ATOM      3  C   UNL     1     -46.475  -7.482 -27.500  0.00  0.00    +0.000 A 
ATOM      4  C   UNL     1     -46.638  -6.404 -26.648  0.00  0.00    +0.000 A 
ATOM      5  C   UNL     1     -46.555  -6.303 -25.265  0.00  0.00    +0.000 A 
ATOM      6  C   UNL     1     -46.702  -4.949 -23.327  0.00  0.00    +0.000 A 
ATOM      7  C   UNL     1     -46.927  -3.720 -22.708  0.00  0.00    +0.000 A 
ATOM      8  C   UNL     1     -47.238  -2.608 -23.486  0.00  0.00    +0.000 A 
ATOM      9  C   UNL     1     -47.320  -2.724 -24.872  0.00  0.00    +0.000 A 
ATOM     10  C   UNL     1     -47.657  -1.519 -25.682  0.00  0.00    +0.000 C 
ATOM     11  C   UNL     1     -47.088  -3.973 -25.474  0.00  0.00    +0.000 A 
ATOM     12  N   UNL     1     -46.969  -5.606 -28.698  0.00  0.00    +0.000 N 
ATOM     13  N   UNL     1     -46.780  -5.077 -24.685  0.00  0.00    +0.000 N 
ATOM     14  N   UNL     1     -47.165  -4.098 -26.835  0.00  0.00    +0.000 NA
ATOM     15  O   UNL     1     -46.278  -7.320 -24.568  0.00  0.00    +0.000 OA
ENDROOT
BRANCH   2  16
ATOM     16  C   UNL     1     -46.641  -7.725 -30.018  0.00  0.00    +0.000 C 
ATOM     17  N   UNL     1     -45.477  -7.693 -30.852  0.00  0.00    +0.000 NA
ATOM     18  O   UNL     1     -47.614  -8.468 -30.321  0.00  0.00    +0.000 OA
BRANCH  17  19
ATOM     19  C   UNL     1     -45.418  -8.152 -32.208  0.00  0.00    +0.000 A 
ATOM     20  C   UNL     1     -45.794  -7.267 -33.224  0.00  0.00    +0.000 A 
ATOM     21  C   UNL     1     -45.767  -7.667 -34.561  0.00  0.00    +0.000 A 
ATOM     22  C   UNL     1     -46.139  -6.706 -35.633  0.00  0.00    +0.000 C 
ATOM     23  C   UNL     1     -45.374  -8.964 -34.894  0.00  0.00    +0.000 A 
ATOM     24  C   UNL     1     -45.024  -9.866 -33.886  0.00  0.00    +0.000 A 
ATOM     25  C   UNL     1     -45.055  -9.477 -32.535  0.00  0.00    +0.000 A 
BRANCH  25  27
ATOM     26  C   UNL     1     -45.669 -11.415 -31.116  0.00  0.00    +0.000 C 
ATOM     27  O   UNL     1     -44.764 -10.396 -31.521  0.00  0.00    +0.000 OA
ENDBRANCH  25  27
ENDBRANCH  17  19
ENDBRANCH   2  16
BRANCH  12  28
ATOM     28  C   UNL     1     -47.327  -4.691 -29.775  0.00  0.00    +0.000 C 
BRANCH  28  29
ATOM     29  C   UNL     1     -46.074  -4.113 -30.402  0.00  0.00    +0.000 C 
BRANCH  29  30
ATOM     30  C   UNL     1     -46.326  -3.833 -31.868  0.00  0.00    +0.000 C 
BRANCH  30  32
ATOM     31  C   UNL     1     -45.562  -2.473 -33.429  0.00  0.00    +0.000 C 
ATOM     32  O   UNL     1     -46.079  -2.486 -32.133  0.00  0.00    +0.000 OA
ENDBRANCH  30  32
ENDBRANCH  29  30
ENDBRANCH  28  29
ENDBRANCH  12  28
TORSDOF 7
ENDMDL
MODEL 3
REMARK VINA RESULT:      -6.1      3.052      4.041
REMARK  Name = ZINC000033554565 MCULE-1829814183 MolPort-035-945-407
REMARK  7 active torsions:
REMARK  status: ('A' for Active; 'I' for Inactive)
REMARK    1  A    between atoms: C_2  and  C_3
REMARK    2  A    between atoms: C_2  and  N_25
REMARK    3  A    between atoms: C_3  and  C_4
REMARK    4  A    between atoms: C_4  and  O_29
REMARK    5  A    between atoms: C_6  and  C_16
REMARK    6  A    between atoms: C_17  and  N_28
REMARK    7  A    between atoms: C_23  and  O_32
REMARK                            x       y       z     vdW  Elec       q    Type
REMARK                         _______ _______ _______ _____ _____    ______ ____
ROOT
ATOM      1  C   UNL     1     -46.937  -6.375 -25.461  0.00  0.00    +0.000 A 
ATOM      2  C   UNL     1     -46.792  -8.505 -25.690  0.00  0.00    +0.000 A 
ATOM      3  C   UNL     1     -46.815  -8.273 -24.308  0.00  0.00    +0.000 A 
ATOM      4  C   UNL     1     -46.905  -6.896 -24.209  0.00  0.00    +0.000 A 
ATOM      5  C   UNL     1     -46.971  -6.055 -23.105  0.00  0.00    +0.000 A 
ATOM      6  C   UNL     1     -47.129  -3.851 -22.252  0.00  0.00    +0.000 A 
ATOM      7  C   UNL     1     -47.230  -2.472 -22.436  0.00  0.00    +0.000 A 
ATOM      8  C   UNL     1     -47.267  -1.955 -23.729  0.00  0.00    +0.000 A 
ATOM      9  C   UNL     1     -47.203  -2.810 -24.826  0.00  0.00    +0.000 A 
ATOM     10  C   UNL     1     -47.248  -2.232 -26.200  0.00  0.00    +0.000 C 
ATOM     11  C   UNL     1     -47.101  -4.196 -24.616  0.00  0.00    +0.000 A 
ATOM     12  N   UNL     1     -46.862  -7.339 -26.388  0.00  0.00    +0.000 N 
ATOM     13  N   UNL     1     -47.067  -4.700 -23.320  0.00  0.00    +0.000 N 
ATOM     14  N   UNL     1     -47.037  -5.045 -25.688  0.00  0.00    +0.000 NA
ATOM     15  O   UNL     1     -46.942  -6.535 -21.937  0.00  0.00    +0.000 OA
ENDROOT
BRANCH   2  16
ATOM     16  C   UNL     1     -46.719  -9.851 -26.289  0.00  0.00    +0.000 C 
ATOM     17  N   UNL     1     -45.536 -10.281 -26.972  0.00  0.00    +0.000 NA
ATOM     18  O   UNL     1     -47.693 -10.641 -26.157  0.00  0.00    +0.000 OA
BRANCH  17  19
ATOM     19  C   UNL     1     -45.449 -11.414 -27.845  0.00  0.00    +0.000 A 
ATOM     20  C   UNL     1     -45.091 -12.649 -27.294  0.00  0.00    +0.000 A 
ATOM     21  C   UNL     1     -44.980 -13.782 -28.102  0.00  0.00    +0.000 A 
ATOM     22  C   UNL     1     -44.628 -15.094 -27.499  0.00  0.00    +0.000 C 
ATOM     23  C   UNL     1     -45.216 -13.686 -29.475  0.00  0.00    +0.000 A 
ATOM     24  C   UNL     1     -45.547 -12.453 -30.041  0.00  0.00    +0.000 A 
ATOM     25  C   UNL     1     -45.654 -11.303 -29.238  0.00  0.00    +0.000 A 
BRANCH  25  27
ATOM     26  C   UNL     1     -47.155  -9.752 -30.457  0.00  0.00    +0.000 C 
ATOM     27  O   UNL     1     -45.926 -10.055 -29.810  0.00  0.00    +0.000 OA
ENDBRANCH  25  27
ENDBRANCH  17  19
ENDBRANCH   2  16
BRANCH  12  28
ATOM     28  C   UNL     1     -46.942  -7.148 -27.831  0.00  0.00    +0.000 C 
BRANCH  28  29
ATOM     29  C   UNL     1     -45.569  -6.828 -28.388  0.00  0.00    +0.000 C 
BRANCH  29  30
ATOM     30  C   UNL     1     -45.717  -6.071 -29.691  0.00  0.00    +0.000 C 
BRANCH  30  32
ATOM     31  C   UNL     1     -46.166  -4.014 -30.352  0.00  0.00    +0.000 C 
ATOM     32  O   UNL     1     -46.635  -5.035 -29.524  0.00  0.00    +0.000 OA
ENDBRANCH  30  32
ENDBRANCH  29  30
ENDBRANCH  28  29
ENDBRANCH  12  28
TORSDOF 7
ENDMDL
