MODEL 1
REMARK VINA RESULT:      -7.3      0.000      0.000
REMARK  Name = ZINC000072242201 ZINC72242201 PubChem-95740415
REMARK  2 active torsions:
REMARK  status: ('A' for Active; 'I' for Inactive)
REMARK    1  A    between atoms: C_7  and  C_8
REMARK    2  A    between atoms: C_11  and  C_12
REMARK                            x       y       z     vdW  Elec       q    Type
REMARK                         _______ _______ _______ _____ _____    ______ ____
ROOT
ATOM      1  C   UNL     1     -46.133  -3.836 -31.656  0.00  0.00    +0.000 C 
ATOM      2  C   UNL     1     -47.235  -4.375 -32.576  0.00  0.00    +0.000 C 
ATOM      3  C   UNL     1     -46.478  -4.998 -33.680  0.00  0.00    +0.000 C 
ATOM      4  C   UNL     1     -44.777  -4.266 -32.247  0.00  0.00    +0.000 C 
ATOM      5  C   UNL     1     -44.107  -5.632 -34.313  0.00  0.00    +0.000 C 
ATOM      6  N   UNL     1     -45.080  -4.906 -33.513  0.00  0.00    +0.000 N 
ATOM      7  O   UNL     1     -47.018  -5.568 -34.663  0.00  0.00    +0.000 OA
ENDROOT
BRANCH   1  14
ATOM      8  C   UNL     1     -47.755  -1.981 -24.700  0.00  0.00    +0.000 C 
ATOM      9  C   UNL     1     -47.391  -3.087 -25.622  0.00  0.00    +0.000 A 
ATOM     10  C   UNL     1     -47.261  -4.388 -25.133  0.00  0.00    +0.000 A 
ATOM     11  C   UNL     1     -46.918  -5.415 -26.013  0.00  0.00    +0.000 A 
ATOM     12  C   UNL     1     -46.711  -5.131 -27.364  0.00  0.00    +0.000 A 
ATOM     13  C   UNL     1     -46.849  -3.813 -27.823  0.00  0.00    +0.000 A 
ATOM     14  C   UNL     1     -46.295  -4.362 -30.268  0.00  0.00    +0.000 C 
ATOM     15  N   UNL     1     -47.184  -2.832 -26.942  0.00  0.00    +0.000 NA
ATOM     16  N   UNL     1     -46.649  -3.469 -29.201  0.00  0.00    +0.000 NA
ATOM     17  O   UNL     1     -46.120  -5.591 -30.058  0.00  0.00    +0.000 OA
ENDBRANCH   1  14
BRANCH   4  18
ATOM     18  C   UNL     1     -43.876  -3.084 -32.440  0.00  0.00    +0.000 A 
ATOM     19  C   UNL     1     -42.495  -3.176 -32.204  0.00  0.00    +0.000 A 
ATOM     20  C   UNL     1     -41.676  -2.060 -32.392  0.00  0.00    +0.000 A 
ATOM     21  C   UNL     1     -42.231  -0.850 -32.819  0.00  0.00    +0.000 A 
ATOM     22  C   UNL     1     -43.605  -0.755 -33.055  0.00  0.00    +0.000 A 
ATOM     23  C   UNL     1     -44.426  -1.870 -32.867  0.00  0.00    +0.000 A 
ATOM     24  F   UNL     1     -41.436   0.233 -33.001  0.00  0.00    +0.000 F 
ENDBRANCH   4  18
TORSDOF 2
ENDMDL
MODEL 2
REMARK VINA RESULT:      -6.9      1.540      2.466
REMARK  Name = ZINC000072242201 ZINC72242201 PubChem-95740415
REMARK  2 active torsions:
REMARK  status: ('A' for Active; 'I' for Inactive)
REMARK    1  A    between atoms: C_7  and  C_8
REMARK    2  A    between atoms: C_11  and  C_12
REMARK                            x       y       z     vdW  Elec       q    Type
REMARK                         _______ _______ _______ _____ _____    ______ ____
ROOT
ATOM      1  C   UNL     1     -46.182  -3.635 -31.876  0.00  0.00    +0.000 C 
ATOM      2  C   UNL     1     -47.234  -4.227 -32.822  0.00  0.00    +0.000 C 
ATOM      3  C   UNL     1     -46.420  -4.924 -33.839  0.00  0.00    +0.000 C 
ATOM      4  C   UNL     1     -44.798  -4.109 -32.359  0.00  0.00    +0.000 C 
ATOM      5  C   UNL     1     -44.022  -5.609 -34.290  0.00  0.00    +0.000 C 
ATOM      6  N   UNL     1     -45.033  -4.828 -33.597  0.00  0.00    +0.000 N 
ATOM      7  O   UNL     1     -46.907  -5.552 -34.813  0.00  0.00    +0.000 OA
ENDROOT
BRANCH   1  14
ATOM      8  C   UNL     1     -43.718  -7.959 -26.428  0.00  0.00    +0.000 C 
ATOM      9  C   UNL     1     -44.749  -6.972 -26.841  0.00  0.00    +0.000 A 
ATOM     10  C   UNL     1     -45.745  -6.586 -25.941  0.00  0.00    +0.000 A 
ATOM     11  C   UNL     1     -46.705  -5.658 -26.346  0.00  0.00    +0.000 A 
ATOM     12  C   UNL     1     -46.659  -5.130 -27.637  0.00  0.00    +0.000 A 
ATOM     13  C   UNL     1     -45.646  -5.539 -28.516  0.00  0.00    +0.000 A 
ATOM     14  C   UNL     1     -46.429  -4.070 -30.470  0.00  0.00    +0.000 C 
ATOM     15  N   UNL     1     -44.722  -6.445 -28.095  0.00  0.00    +0.000 NA
ATOM     16  N   UNL     1     -45.553  -5.026 -29.852  0.00  0.00    +0.000 NA
ATOM     17  O   UNL     1     -47.407  -3.584 -29.844  0.00  0.00    +0.000 OA
ENDBRANCH   1  14
BRANCH   4  18
ATOM     18  C   UNL     1     -43.877  -2.947 -32.573  0.00  0.00    +0.000 A 
ATOM     19  C   UNL     1     -44.347  -1.732 -33.094  0.00  0.00    +0.000 A 
ATOM     20  C   UNL     1     -43.469  -0.662 -33.284  0.00  0.00    +0.000 A 
ATOM     21  C   UNL     1     -42.118  -0.801 -32.953  0.00  0.00    +0.000 A 
ATOM     22  C   UNL     1     -41.645  -2.010 -32.434  0.00  0.00    +0.000 A 
ATOM     23  C   UNL     1     -42.523  -3.081 -32.244  0.00  0.00    +0.000 A 
ATOM     24  F   UNL     1     -41.265   0.236 -33.138  0.00  0.00    +0.000 F 
ENDBRANCH   4  18
TORSDOF 2
ENDMDL
MODEL 3
REMARK VINA RESULT:      -6.7      3.333      4.403
REMARK  Name = ZINC000072242201 ZINC72242201 PubChem-95740415
REMARK  2 active torsions:
REMARK  status: ('A' for Active; 'I' for Inactive)
REMARK    1  A    between atoms: C_7  and  C_8
REMARK    2  A    between atoms: C_11  and  C_12
REMARK                            x       y       z     vdW  Elec       q    Type
REMARK                         _______ _______ _______ _____ _____    ______ ____
ROOT
ATOM      1  C   UNL     1     -46.702  -5.779 -29.026  0.00  0.00    +0.000 C 
ATOM      2  C   UNL     1     -46.334  -7.035 -28.226  0.00  0.00    +0.000 C 
ATOM      3  C   UNL     1     -45.036  -7.435 -28.804  0.00  0.00    +0.000 C 
ATOM      4  C   UNL     1     -45.529  -5.468 -29.976  0.00  0.00    +0.000 C 
ATOM      5  C   UNL     1     -43.255  -6.581 -30.393  0.00  0.00    +0.000 C 
ATOM      6  N   UNL     1     -44.593  -6.566 -29.824  0.00  0.00    +0.000 N 
ATOM      7  O   UNL     1     -44.380  -8.438 -28.421  0.00  0.00    +0.000 OA
ENDROOT
BRANCH   1  14
ATOM      8  C   UNL     1     -47.156  -3.724 -21.953  0.00  0.00    +0.000 C 
ATOM      9  C   UNL     1     -47.253  -3.283 -23.368  0.00  0.00    +0.000 A 
ATOM     10  C   UNL     1     -47.543  -1.950 -23.664  0.00  0.00    +0.000 A 
ATOM     11  C   UNL     1     -47.630  -1.552 -24.998  0.00  0.00    +0.000 A 
ATOM     12  C   UNL     1     -47.428  -2.486 -26.015  0.00  0.00    +0.000 A 
ATOM     13  C   UNL     1     -47.138  -3.817 -25.685  0.00  0.00    +0.000 A 
ATOM     14  C   UNL     1     -46.962  -4.626 -28.114  0.00  0.00    +0.000 C 
ATOM     15  N   UNL     1     -47.059  -4.177 -24.375  0.00  0.00    +0.000 NA
ATOM     16  N   UNL     1     -46.921  -4.815 -26.692  0.00  0.00    +0.000 NA
ATOM     17  O   UNL     1     -47.212  -3.498 -28.614  0.00  0.00    +0.000 OA
ENDBRANCH   1  14
BRANCH   4  18
ATOM     18  C   UNL     1     -46.001  -5.352 -31.393  0.00  0.00    +0.000 A 
ATOM     19  C   UNL     1     -46.193  -6.489 -32.191  0.00  0.00    +0.000 A 
ATOM     20  C   UNL     1     -46.636  -6.355 -33.510  0.00  0.00    +0.000 A 
ATOM     21  C   UNL     1     -46.890  -5.085 -34.035  0.00  0.00    +0.000 A 
ATOM     22  C   UNL     1     -46.700  -3.949 -33.243  0.00  0.00    +0.000 A 
ATOM     23  C   UNL     1     -46.258  -4.083 -31.923  0.00  0.00    +0.000 A 
ATOM     24  F   UNL     1     -47.319  -4.954 -35.314  0.00  0.00    +0.000 F 
ENDBRANCH   4  18
TORSDOF 2
ENDMDL
