MODEL 1
REMARK VINA RESULT:      -5.4      0.000      0.000
REMARK  Name = ZINC000095989116 PubChem-97337050
REMARK  7 active torsions:
REMARK  status: ('A' for Active; 'I' for Inactive)
REMARK    1  A    between atoms: C_2  and  C_4
REMARK    2  A    between atoms: C_4  and  N_23
REMARK    3  A    between atoms: C_7  and  C_8
REMARK    4  A    between atoms: C_8  and  N_25
REMARK    5  A    between atoms: C_9  and  C_10
REMARK    6  A    between atoms: C_13  and  C_14
REMARK    7  A    between atoms: C_20  and  N_26
REMARK                            x       y       z     vdW  Elec       q    Type
REMARK                         _______ _______ _______ _____ _____    ______ ____
ROOT
ATOM      1  C   UNL     1     -46.729  -5.762 -32.570  0.00  0.00    +0.000 C 
ATOM      2  C   UNL     1     -47.167  -4.671 -33.555  0.00  0.00    +0.000 C 
ATOM      3  C   UNL     1     -46.249  -3.555 -33.256  0.00  0.00    +0.000 C 
ATOM      4  C   UNL     1     -45.576  -5.194 -31.720  0.00  0.00    +0.000 C 
ATOM      5  N   UNL     1     -45.335  -3.852 -32.215  0.00  0.00    +0.000 N 
ATOM      6  O   UNL     1     -46.267  -2.454 -33.866  0.00  0.00    +0.000 OA
ENDROOT
BRANCH   4   7
ATOM      7  C   UNL     1     -45.944  -5.175 -30.268  0.00  0.00    +0.000 A 
ATOM      8  C   UNL     1     -45.159  -5.836 -29.311  0.00  0.00    +0.000 A 
ATOM      9  C   UNL     1     -45.517  -5.797 -27.960  0.00  0.00    +0.000 A 
ATOM     10  C   UNL     1     -46.664  -5.098 -27.560  0.00  0.00    +0.000 A 
ATOM     11  C   UNL     1     -47.453  -4.449 -28.515  0.00  0.00    +0.000 A 
ATOM     12  C   UNL     1     -47.093  -4.486 -29.865  0.00  0.00    +0.000 A 
ATOM     13 CL   UNL     1     -47.124  -5.024 -25.869  0.00  0.00    +0.000 Cl
ATOM     14  F   UNL     1     -44.740  -6.430 -27.044  0.00  0.00    +0.000 F 
ENDBRANCH   4   7
BRANCH   1  15
ATOM     15  C   UNL     1     -46.279  -6.981 -33.306  0.00  0.00    +0.000 C 
ATOM     16  N   UNL     1     -45.346  -6.868 -34.383  0.00  0.00    +0.000 NA
ATOM     17  O   UNL     1     -46.746  -8.104 -32.981  0.00  0.00    +0.000 OA
BRANCH  16  18
ATOM     18  C   UNL     1     -44.876  -8.029 -35.120  0.00  0.00    +0.000 C 
BRANCH  18  21
ATOM     19  C   UNL     1     -46.788  -8.515 -38.126  0.00  0.00    +0.000 A 
ATOM     20  C   UNL     1     -45.896  -7.526 -38.512  0.00  0.00    +0.000 A 
ATOM     21  C   UNL     1     -45.486  -8.037 -36.481  0.00  0.00    +0.000 A 
ATOM     22  N   UNL     1     -46.521  -8.814 -36.845  0.00  0.00    +0.000 N 
ATOM     23  N   UNL     1     -45.082  -7.225 -37.476  0.00  0.00    +0.000 NA
BRANCH  22  24
ATOM     24  C   UNL     1     -47.204  -9.810 -36.028  0.00  0.00    +0.000 C 
BRANCH  24  26
ATOM     25  C   UNL     1     -46.083 -11.669 -34.832  0.00  0.00    +0.000 C 
ATOM     26  C   UNL     1     -46.554 -11.177 -36.185  0.00  0.00    +0.000 C 
ATOM     27  C   UNL     1     -47.545 -12.171 -36.755  0.00  0.00    +0.000 C 
ENDBRANCH  24  26
ENDBRANCH  22  24
ENDBRANCH  18  21
ENDBRANCH  16  18
ENDBRANCH   1  15
BRANCH   5  28
ATOM     28  C   UNL     1     -44.238  -3.002 -31.755  0.00  0.00    +0.000 C 
ATOM     29  C   UNL     1     -43.146  -2.911 -32.808  0.00  0.00    +0.000 C 
ATOM     30  C   UNL     1     -44.745  -1.616 -31.401  0.00  0.00    +0.000 C 
ENDBRANCH   5  28
TORSDOF 7
ENDMDL
MODEL 2
REMARK VINA RESULT:      -5.4      3.782      6.240
REMARK  Name = ZINC000095989116 PubChem-97337050
REMARK  7 active torsions:
REMARK  status: ('A' for Active; 'I' for Inactive)
REMARK    1  A    between atoms: C_2  and  C_4
REMARK    2  A    between atoms: C_4  and  N_23
REMARK    3  A    between atoms: C_7  and  C_8
REMARK    4  A    between atoms: C_8  and  N_25
REMARK    5  A    between atoms: C_9  and  C_10
REMARK    6  A    between atoms: C_13  and  C_14
REMARK    7  A    between atoms: C_20  and  N_26
REMARK                            x       y       z     vdW  Elec       q    Type
REMARK                         _______ _______ _______ _____ _____    ______ ____
ROOT
ATOM      1  C   UNL     1     -46.797  -6.254 -31.436  0.00  0.00    +0.000 C 
ATOM      2  C   UNL     1     -47.618  -5.194 -30.691  0.00  0.00    +0.000 C 
ATOM      3  C   UNL     1     -46.978  -5.139 -29.363  0.00  0.00    +0.000 C 
ATOM      4  C   UNL     1     -45.722  -6.784 -30.466  0.00  0.00    +0.000 C 
ATOM      5  N   UNL     1     -45.892  -6.039 -29.232  0.00  0.00    +0.000 N 
ATOM      6  O   UNL     1     -47.350  -4.367 -28.440  0.00  0.00    +0.000 OA
ENDROOT
BRANCH   4   7
ATOM      7  C   UNL     1     -45.892  -8.255 -30.235  0.00  0.00    +0.000 A 
ATOM      8  C   UNL     1     -44.802  -9.134 -30.321  0.00  0.00    +0.000 A 
ATOM      9  C   UNL     1     -44.981 -10.501 -30.092  0.00  0.00    +0.000 A 
ATOM     10  C   UNL     1     -46.255 -10.997 -29.779  0.00  0.00    +0.000 A 
ATOM     11  C   UNL     1     -47.343 -10.121 -29.704  0.00  0.00    +0.000 A 
ATOM     12  C   UNL     1     -47.162  -8.754 -29.929  0.00  0.00    +0.000 A 
ATOM     13 CL   UNL     1     -46.501 -12.706 -29.473  0.00  0.00    +0.000 Cl
ATOM     14  F   UNL     1     -43.915 -11.337 -30.166  0.00  0.00    +0.000 F 
ENDBRANCH   4   7
BRANCH   1  15
ATOM     15  C   UNL     1     -46.155  -5.663 -32.648  0.00  0.00    +0.000 C 
ATOM     16  N   UNL     1     -44.823  -6.034 -33.010  0.00  0.00    +0.000 NA
ATOM     17  O   UNL     1     -46.793  -4.822 -33.334  0.00  0.00    +0.000 OA
BRANCH  16  18
ATOM     18  C   UNL     1     -44.165  -5.489 -34.186  0.00  0.00    +0.000 C 
BRANCH  18  21
ATOM     19  C   UNL     1     -41.661  -3.159 -33.075  0.00  0.00    +0.000 A 
ATOM     20  C   UNL     1     -40.914  -4.311 -33.266  0.00  0.00    +0.000 A 
ATOM     21  C   UNL     1     -42.942  -4.742 -33.772  0.00  0.00    +0.000 A 
ATOM     22  N   UNL     1     -42.934  -3.453 -33.387  0.00  0.00    +0.000 N 
ATOM     23  N   UNL     1     -41.721  -5.305 -33.700  0.00  0.00    +0.000 NA
BRANCH  22  24
ATOM     24  C   UNL     1     -44.069  -2.539 -33.345  0.00  0.00    +0.000 C 
BRANCH  24  26
ATOM     25  C   UNL     1     -44.167  -0.322 -32.242  0.00  0.00    +0.000 C 
ATOM     26  C   UNL     1     -44.134  -1.818 -32.006  0.00  0.00    +0.000 C 
ATOM     27  C   UNL     1     -45.380  -2.226 -31.247  0.00  0.00    +0.000 C 
ENDBRANCH  24  26
ENDBRANCH  22  24
ENDBRANCH  18  21
ENDBRANCH  16  18
ENDBRANCH   1  15
BRANCH   5  28
ATOM     28  C   UNL     1     -44.992  -6.153 -28.086  0.00  0.00    +0.000 C 
ATOM     29  C   UNL     1     -45.421  -7.290 -27.174  0.00  0.00    +0.000 C 
ATOM     30  C   UNL     1     -43.560  -6.357 -28.545  0.00  0.00    +0.000 C 
ENDBRANCH   5  28
TORSDOF 7
ENDMDL
MODEL 3
REMARK VINA RESULT:      -5.2     11.547     14.257
REMARK  Name = ZINC000095989116 PubChem-97337050
REMARK  7 active torsions:
REMARK  status: ('A' for Active; 'I' for Inactive)
REMARK    1  A    between atoms: C_2  and  C_4
REMARK    2  A    between atoms: C_4  and  N_23
REMARK    3  A    between atoms: C_7  and  C_8
REMARK    4  A    between atoms: C_8  and  N_25
REMARK    5  A    between atoms: C_9  and  C_10
REMARK    6  A    between atoms: C_13  and  C_14
REMARK    7  A    between atoms: C_20  and  N_26
REMARK                            x       y       z     vdW  Elec       q    Type
REMARK                         _______ _______ _______ _____ _____    ______ ____
ROOT
ATOM      1  C   UNL     1     -44.173 -15.525 -23.118  0.00  0.00    +0.000 C 
ATOM      2  C   UNL     1     -43.027 -15.454 -24.135  0.00  0.00    +0.000 C 
ATOM      3  C   UNL     1     -43.098 -16.759 -24.820  0.00  0.00    +0.000 C 
ATOM      4  C   UNL     1     -44.841 -16.908 -23.257  0.00  0.00    +0.000 C 
ATOM      5  N   UNL     1     -44.136 -17.588 -24.328  0.00  0.00    +0.000 N 
ATOM      6  O   UNL     1     -42.325 -17.101 -25.753  0.00  0.00    +0.000 OA
ENDROOT
BRANCH   4   7
ATOM      7  C   UNL     1     -44.744 -17.677 -21.974  0.00  0.00    +0.000 A 
ATOM      8  C   UNL     1     -45.878 -18.265 -21.394  0.00  0.00    +0.000 A 
ATOM      9  C   UNL     1     -45.764 -18.986 -20.202  0.00  0.00    +0.000 A 
ATOM     10  C   UNL     1     -44.513 -19.120 -19.583  0.00  0.00    +0.000 A 
ATOM     11  C   UNL     1     -43.385 -18.524 -20.156  0.00  0.00    +0.000 A 
ATOM     12  C   UNL     1     -43.500 -17.806 -21.349  0.00  0.00    +0.000 A 
ATOM     13 CL   UNL     1     -44.344 -20.033 -18.094  0.00  0.00    +0.000 Cl
ATOM     14  F   UNL     1     -46.868 -19.561 -19.659  0.00  0.00    +0.000 F 
ENDBRANCH   4   7
BRANCH   1  15
ATOM     15  C   UNL     1     -45.167 -14.441 -23.374  0.00  0.00    +0.000 C 
ATOM     16  N   UNL     1     -44.819 -13.324 -24.195  0.00  0.00    +0.000 NA
ATOM     17  O   UNL     1     -46.307 -14.512 -22.844  0.00  0.00    +0.000 OA
BRANCH  16  18
ATOM     18  C   UNL     1     -45.759 -12.252 -24.475  0.00  0.00    +0.000 C 
BRANCH  18  21
ATOM     19  C   UNL     1     -46.512 -11.691 -27.946  0.00  0.00    +0.000 A 
ATOM     20  C   UNL     1     -46.792 -13.042 -27.809  0.00  0.00    +0.000 A 
ATOM     21  C   UNL     1     -46.154 -12.298 -25.913  0.00  0.00    +0.000 A 
ATOM     22  N   UNL     1     -46.102 -11.245 -26.748  0.00  0.00    +0.000 N 
ATOM     23  N   UNL     1     -46.562 -13.422 -26.532  0.00  0.00    +0.000 NA
BRANCH  22  24
ATOM     24  C   UNL     1     -45.713  -9.879 -26.420  0.00  0.00    +0.000 C 
BRANCH  24  26
ATOM     25  C   UNL     1     -47.230  -8.336 -25.213  0.00  0.00    +0.000 C 
ATOM     26  C   UNL     1     -46.894  -8.929 -26.565  0.00  0.00    +0.000 C 
ATOM     27  C   UNL     1     -46.556  -7.809 -27.527  0.00  0.00    +0.000 C 
ENDBRANCH  24  26
ENDBRANCH  22  24
ENDBRANCH  18  21
ENDBRANCH  16  18
ENDBRANCH   1  15
BRANCH   5  28
ATOM     28  C   UNL     1     -44.533 -18.891 -24.860  0.00  0.00    +0.000 C 
ATOM     29  C   UNL     1     -43.857 -20.016 -24.096  0.00  0.00    +0.000 C 
ATOM     30  C   UNL     1     -46.041 -19.053 -24.812  0.00  0.00    +0.000 C 
ENDBRANCH   5  28
TORSDOF 7
ENDMDL
