MODEL 1
REMARK VINA RESULT:      -6.5      0.000      0.000
REMARK  Name = ZINC000096180993 ZINC96180993 PubChem-97456961
REMARK  4 active torsions:
REMARK  status: ('A' for Active; 'I' for Inactive)
REMARK    1  A    between atoms: C_2  and  C_14
REMARK    2  A    between atoms: C_3  and  C_6
REMARK    3  A    between atoms: C_7  and  C_8
REMARK    4  A    between atoms: C_7  and  N_21
REMARK                            x       y       z     vdW  Elec       q    Type
REMARK                         _______ _______ _______ _____ _____    ______ ____
ROOT
ATOM      1  C   UNL     1     -44.164  -5.623 -34.314  0.00  0.00    +0.000 C 
ATOM      2  C   UNL     1     -45.043  -4.166 -32.393  0.00  0.00    +0.000 C 
ATOM      3  C   UNL     1     -46.447  -3.671 -31.997  0.00  0.00    +0.000 C 
ATOM      4  C   UNL     1     -47.439  -4.190 -33.047  0.00  0.00    +0.000 C 
ATOM      5  C   UNL     1     -46.569  -4.877 -34.021  0.00  0.00    +0.000 C 
ATOM      6  N   UNL     1     -45.203  -4.835 -33.671  0.00  0.00    +0.000 N 
ATOM      7  O   UNL     1     -46.998  -5.457 -35.053  0.00  0.00    +0.000 OA
ENDROOT
BRANCH   2   8
ATOM      8  C   UNL     1     -44.080  -3.023 -32.499  0.00  0.00    +0.000 A 
ATOM      9  C   UNL     1     -42.726  -3.179 -32.161  0.00  0.00    +0.000 A 
ATOM     10  C   UNL     1     -41.848  -2.097 -32.269  0.00  0.00    +0.000 A 
ATOM     11  C   UNL     1     -42.316  -0.858 -32.715  0.00  0.00    +0.000 A 
ATOM     12  C   UNL     1     -43.663  -0.700 -33.053  0.00  0.00    +0.000 A 
ATOM     13  C   UNL     1     -44.544  -1.781 -32.945  0.00  0.00    +0.000 A 
ATOM     14  F   UNL     1     -41.464   0.190 -32.820  0.00  0.00    +0.000 F 
ENDBRANCH   2   8
BRANCH   3  15
ATOM     15  C   UNL     1     -46.813  -4.162 -30.636  0.00  0.00    +0.000 C 
ATOM     16  N   UNL     1     -46.099  -5.253 -30.050  0.00  0.00    +0.000 NA
ATOM     17  O   UNL     1     -47.752  -3.603 -30.010  0.00  0.00    +0.000 OA
BRANCH  16  18
ATOM     18  C   UNL     1     -46.414  -5.758 -28.725  0.00  0.00    +0.000 C 
BRANCH  18  19
ATOM     19  C   UNL     1     -45.165  -6.206 -28.050  0.00  0.00    +0.000 A 
ATOM     20  C   UNL     1     -45.219  -6.735 -26.757  0.00  0.00    +0.000 A 
ATOM     21  C   UNL     1     -44.050  -7.180 -26.134  0.00  0.00    +0.000 A 
ATOM     22  C   UNL     1     -42.825  -7.102 -26.805  0.00  0.00    +0.000 A 
ATOM     23  C   UNL     1     -42.771  -6.578 -28.100  0.00  0.00    +0.000 A 
ATOM     24  C   UNL     1     -43.941  -6.133 -28.725  0.00  0.00    +0.000 A 
ATOM     25  F   UNL     1     -41.587  -6.505 -28.753  0.00  0.00    +0.000 F 
ENDBRANCH  18  19
ENDBRANCH  16  18
ENDBRANCH   3  15
TORSDOF 4
ENDMDL
MODEL 2
REMARK VINA RESULT:      -6.3     11.289     14.140
REMARK  Name = ZINC000096180993 ZINC96180993 PubChem-97456961
REMARK  4 active torsions:
REMARK  status: ('A' for Active; 'I' for Inactive)
REMARK    1  A    between atoms: C_2  and  C_14
REMARK    2  A    between atoms: C_3  and  C_6
REMARK    3  A    between atoms: C_7  and  C_8
REMARK    4  A    between atoms: C_7  and  N_21
REMARK                            x       y       z     vdW  Elec       q    Type
REMARK                         _______ _______ _______ _____ _____    ______ ____
ROOT
ATOM      1  C   UNL     1     -41.519 -15.789 -26.188  0.00  0.00    +0.000 C 
ATOM      2  C   UNL     1     -43.907 -16.686 -25.902  0.00  0.00    +0.000 C 
ATOM      3  C   UNL     1     -44.580 -18.029 -26.241  0.00  0.00    +0.000 C 
ATOM      4  C   UNL     1     -43.526 -18.927 -26.904  0.00  0.00    +0.000 C 
ATOM      5  C   UNL     1     -42.342 -18.050 -26.987  0.00  0.00    +0.000 C 
ATOM      6  N   UNL     1     -42.565 -16.764 -26.450  0.00  0.00    +0.000 N 
ATOM      7  O   UNL     1     -41.237 -18.410 -27.472  0.00  0.00    +0.000 OA
ENDROOT
BRANCH   2   8
ATOM      8  C   UNL     1     -44.666 -15.539 -26.495  0.00  0.00    +0.000 A 
ATOM      9  C   UNL     1     -44.519 -15.189 -27.847  0.00  0.00    +0.000 A 
ATOM     10  C   UNL     1     -45.240 -14.115 -28.375  0.00  0.00    +0.000 A 
ATOM     11  C   UNL     1     -46.110 -13.387 -27.559  0.00  0.00    +0.000 A 
ATOM     12  C   UNL     1     -46.259 -13.733 -26.213  0.00  0.00    +0.000 A 
ATOM     13  C   UNL     1     -45.539 -14.807 -25.682  0.00  0.00    +0.000 A 
ATOM     14  F   UNL     1     -46.809 -12.347 -28.072  0.00  0.00    +0.000 F 
ENDBRANCH   2   8
BRANCH   3  15
ATOM     15  C   UNL     1     -45.120 -18.672 -25.007  0.00  0.00    +0.000 C 
ATOM     16  N   UNL     1     -44.526 -18.400 -23.736  0.00  0.00    +0.000 NA
ATOM     17  O   UNL     1     -46.106 -19.451 -25.098  0.00  0.00    +0.000 OA
BRANCH  16  18
ATOM     18  C   UNL     1     -45.025 -18.996 -22.508  0.00  0.00    +0.000 C 
BRANCH  18  19
ATOM     19  C   UNL     1     -45.464 -17.923 -21.575  0.00  0.00    +0.000 A 
ATOM     20  C   UNL     1     -45.889 -18.250 -20.283  0.00  0.00    +0.000 A 
ATOM     21  C   UNL     1     -46.276 -17.240 -19.397  0.00  0.00    +0.000 A 
ATOM     22  C   UNL     1     -46.234 -15.902 -19.800  0.00  0.00    +0.000 A 
ATOM     23  C   UNL     1     -45.803 -15.573 -21.089  0.00  0.00    +0.000 A 
ATOM     24  C   UNL     1     -45.415 -16.584 -21.976  0.00  0.00    +0.000 A 
ATOM     25  F   UNL     1     -45.758 -14.277 -21.479  0.00  0.00    +0.000 F 
ENDBRANCH  18  19
ENDBRANCH  16  18
ENDBRANCH   3  15
TORSDOF 4
ENDMDL
MODEL 3
REMARK VINA RESULT:      -6.3     13.541     16.835
REMARK  Name = ZINC000096180993 ZINC96180993 PubChem-97456961
REMARK  4 active torsions:
REMARK  status: ('A' for Active; 'I' for Inactive)
REMARK    1  A    between atoms: C_2  and  C_14
REMARK    2  A    between atoms: C_3  and  C_6
REMARK    3  A    between atoms: C_7  and  C_8
REMARK    4  A    between atoms: C_7  and  N_21
REMARK                            x       y       z     vdW  Elec       q    Type
REMARK                         _______ _______ _______ _____ _____    ______ ____
ROOT
ATOM      1  C   UNL     1     -44.308 -14.605 -17.743  0.00  0.00    +0.000 C 
ATOM      2  C   UNL     1     -45.199 -15.561 -19.951  0.00  0.00    +0.000 C 
ATOM      3  C   UNL     1     -46.360 -15.166 -20.883  0.00  0.00    +0.000 C 
ATOM      4  C   UNL     1     -47.078 -13.964 -20.254  0.00  0.00    +0.000 C 
ATOM      5  C   UNL     1     -46.362 -13.777 -18.977  0.00  0.00    +0.000 C 
ATOM      6  N   UNL     1     -45.316 -14.704 -18.786  0.00  0.00    +0.000 N 
ATOM      7  O   UNL     1     -46.641 -12.873 -18.145  0.00  0.00    +0.000 OA
ENDROOT
BRANCH   2   8
ATOM      8  C   UNL     1     -45.284 -17.007 -19.570  0.00  0.00    +0.000 A 
ATOM      9  C   UNL     1     -44.164 -17.697 -19.078  0.00  0.00    +0.000 A 
ATOM     10  C   UNL     1     -44.269 -19.046 -18.729  0.00  0.00    +0.000 A 
ATOM     11  C   UNL     1     -45.490 -19.711 -18.868  0.00  0.00    +0.000 A 
ATOM     12  C   UNL     1     -46.607 -19.027 -19.356  0.00  0.00    +0.000 A 
ATOM     13  C   UNL     1     -46.504 -17.678 -19.707  0.00  0.00    +0.000 A 
ATOM     14  F   UNL     1     -45.591 -21.018 -18.528  0.00  0.00    +0.000 F 
ENDBRANCH   2   8
BRANCH   3  15
ATOM     15  C   UNL     1     -45.850 -14.823 -22.243  0.00  0.00    +0.000 C 
ATOM     16  N   UNL     1     -46.498 -15.344 -23.406  0.00  0.00    +0.000 NA
ATOM     17  O   UNL     1     -44.847 -14.069 -22.354  0.00  0.00    +0.000 OA
BRANCH  16  18
ATOM     18  C   UNL     1     -46.042 -15.030 -24.749  0.00  0.00    +0.000 C 
BRANCH  18  19
ATOM     19  C   UNL     1     -45.377 -16.222 -25.343  0.00  0.00    +0.000 A 
ATOM     20  C   UNL     1     -44.289 -16.058 -26.207  0.00  0.00    +0.000 A 
ATOM     21  C   UNL     1     -43.648 -17.179 -26.744  0.00  0.00    +0.000 A 
ATOM     22  C   UNL     1     -44.090 -18.464 -26.414  0.00  0.00    +0.000 A 
ATOM     23  C   UNL     1     -45.173 -18.628 -25.545  0.00  0.00    +0.000 A 
ATOM     24  C   UNL     1     -45.815 -17.507 -25.007  0.00  0.00    +0.000 A 
ATOM     25  F   UNL     1     -45.600 -19.872 -25.222  0.00  0.00    +0.000 F 
ENDBRANCH  18  19
ENDBRANCH  16  18
ENDBRANCH   3  15
TORSDOF 4
ENDMDL
