MODEL 1
REMARK VINA RESULT:      -7.3      0.000      0.000
REMARK  Name = ZINC000253471412 PubChem-124891440
REMARK  7 active torsions:
REMARK  status: ('A' for Active; 'I' for Inactive)
REMARK    1  A    between atoms: C_5  and  C_6
REMARK    2  A    between atoms: C_6  and  C_7
REMARK    3  A    between atoms: C_6  and  C_17
REMARK    4  A    between atoms: C_7  and  C_8
REMARK    5  A    between atoms: C_9  and  C_10
REMARK    6  A    between atoms: C_9  and  N_32
REMARK    7  A    between atoms: C_10  and  C_11
REMARK                            x       y       z     vdW  Elec       q    Type
REMARK                         _______ _______ _______ _____ _____    ______ ____
ROOT
ATOM      1  C   UNL     1     -45.679  -4.609 -31.374  0.00  0.00    +0.000 C 
ENDROOT
BRANCH   1   6
ATOM      2  C   UNL     1     -41.698  -0.599 -32.466  0.00  0.00    +0.000 C 
ATOM      3  C   UNL     1     -42.699  -1.660 -32.182  0.00  0.00    +0.000 A 
ATOM      4  C   UNL     1     -42.309  -2.998 -32.192  0.00  0.00    +0.000 A 
ATOM      5  C   UNL     1     -43.262  -3.978 -31.924  0.00  0.00    +0.000 A 
ATOM      6  C   UNL     1     -44.590  -3.601 -31.646  0.00  0.00    +0.000 A 
ATOM      7  C   UNL     1     -44.900  -2.230 -31.661  0.00  0.00    +0.000 A 
ATOM      8  O   UNL     1     -42.877  -5.314 -31.933  0.00  0.00    +0.000 OA
ATOM      9  O   UNL     1     -46.077  -1.840 -31.428  0.00  0.00    +0.000 OA
ATOM     10  O   UNL     1     -43.958  -1.327 -31.922  0.00  0.00    +0.000 OA
ENDBRANCH   1   6
BRANCH   1  11
ATOM     11  C   UNL     1     -45.816  -5.622 -32.474  0.00  0.00    +0.000 A 
ATOM     12  C   UNL     1     -45.579  -6.983 -32.177  0.00  0.00    +0.000 A 
ATOM     13  C   UNL     1     -45.691  -7.965 -33.178  0.00  0.00    +0.000 A 
ATOM     14  C   UNL     1     -46.039  -7.542 -34.458  0.00  0.00    +0.000 A 
ATOM     15  C   UNL     1     -46.267  -6.236 -34.748  0.00  0.00    +0.000 A 
ATOM     16  C   UNL     1     -46.167  -5.237 -33.785  0.00  0.00    +0.000 A 
ATOM     17  C   UNL     1     -46.567  -7.421 -36.671  0.00  0.00    +0.000 C 
ATOM     18  O   UNL     1     -46.592  -6.112 -36.084  0.00  0.00    +0.000 OA
ATOM     19  O   UNL     1     -46.209  -8.302 -35.597  0.00  0.00    +0.000 OA
ENDBRANCH   1  11
BRANCH   1  20
ATOM     20  C   UNL     1     -45.585  -5.233 -29.982  0.00  0.00    +0.000 C 
BRANCH  20  21
ATOM     21  C   UNL     1     -46.672  -4.732 -29.095  0.00  0.00    +0.000 C 
ATOM     22  O   UNL     1     -47.680  -4.161 -29.593  0.00  0.00    +0.000 OA
ATOM     23  N   UNL     1     -46.561  -4.906 -27.683  0.00  0.00    +0.000 NA
BRANCH  23  24
ATOM     24  C   UNL     1     -47.589  -4.444 -26.765  0.00  0.00    +0.000 C 
BRANCH  24  25
ATOM     25  C   UNL     1     -47.296  -3.019 -26.322  0.00  0.00    +0.000 C 
BRANCH  25  26
ATOM     26  C   UNL     1     -47.257  -2.903 -24.833  0.00  0.00    +0.000 A 
ATOM     27  C   UNL     1     -47.169  -4.062 -24.055  0.00  0.00    +0.000 A 
ATOM     28  C   UNL     1     -47.110  -3.968 -22.661  0.00  0.00    +0.000 A 
ATOM     29  C   UNL     1     -47.134  -2.714 -22.043  0.00  0.00    +0.000 A 
ATOM     30  C   UNL     1     -47.211  -1.554 -22.819  0.00  0.00    +0.000 A 
ATOM     31  C   UNL     1     -47.270  -1.647 -24.211  0.00  0.00    +0.000 A 
ATOM     32  O   UNL     1     -47.077  -2.621 -20.659  0.00  0.00    +0.000 OA
ENDBRANCH  25  26
ENDBRANCH  24  25
ENDBRANCH  23  24
ENDBRANCH  20  21
ENDBRANCH   1  20
TORSDOF 7
ENDMDL
MODEL 2
REMARK VINA RESULT:      -7.3     12.646     14.582
REMARK  Name = ZINC000253471412 PubChem-124891440
REMARK  7 active torsions:
REMARK  status: ('A' for Active; 'I' for Inactive)
REMARK    1  A    between atoms: C_5  and  C_6
REMARK    2  A    between atoms: C_6  and  C_7
REMARK    3  A    between atoms: C_6  and  C_17
REMARK    4  A    between atoms: C_7  and  C_8
REMARK    5  A    between atoms: C_9  and  C_10
REMARK    6  A    between atoms: C_9  and  N_32
REMARK    7  A    between atoms: C_10  and  C_11
REMARK                            x       y       z     vdW  Elec       q    Type
REMARK                         _______ _______ _______ _____ _____    ______ ____
ROOT
ATOM      1  C   UNL     1     -44.856 -15.599 -24.192  0.00  0.00    +0.000 C 
ENDROOT
BRANCH   1   6
ATOM      2  C   UNL     1     -42.893 -20.954 -23.427  0.00  0.00    +0.000 C 
ATOM      3  C   UNL     1     -43.433 -19.585 -23.636  0.00  0.00    +0.000 A 
ATOM      4  C   UNL     1     -44.661 -19.416 -24.273  0.00  0.00    +0.000 A 
ATOM      5  C   UNL     1     -45.150 -18.126 -24.460  0.00  0.00    +0.000 A 
ATOM      6  C   UNL     1     -44.402 -17.025 -24.001  0.00  0.00    +0.000 A 
ATOM      7  C   UNL     1     -43.170 -17.282 -23.372  0.00  0.00    +0.000 A 
ATOM      8  O   UNL     1     -46.375 -17.953 -25.094  0.00  0.00    +0.000 OA
ATOM      9  O   UNL     1     -42.458 -16.331 -22.951  0.00  0.00    +0.000 OA
ATOM     10  O   UNL     1     -42.741 -18.532 -23.215  0.00  0.00    +0.000 OA
ENDBRANCH   1   6
BRANCH   1  11
ATOM     11  C   UNL     1     -44.872 -15.187 -25.636  0.00  0.00    +0.000 A 
ATOM     12  C   UNL     1     -43.854 -15.668 -26.491  0.00  0.00    +0.000 A 
ATOM     13  C   UNL     1     -43.827 -15.305 -27.849  0.00  0.00    +0.000 A 
ATOM     14  C   UNL     1     -44.833 -14.459 -28.309  0.00  0.00    +0.000 A 
ATOM     15  C   UNL     1     -45.813 -13.994 -27.492  0.00  0.00    +0.000 A 
ATOM     16  C   UNL     1     -45.873 -14.333 -26.144  0.00  0.00    +0.000 A 
ATOM     17  C   UNL     1     -46.194 -13.136 -29.567  0.00  0.00    +0.000 C 
ATOM     18  O   UNL     1     -46.666 -13.184 -28.213  0.00  0.00    +0.000 OA
ATOM     19  O   UNL     1     -45.023 -13.964 -29.582  0.00  0.00    +0.000 OA
ENDBRANCH   1  11
BRANCH   1  20
ATOM     20  C   UNL     1     -46.158 -15.280 -23.456  0.00  0.00    +0.000 C 
BRANCH  20  21
ATOM     21  C   UNL     1     -45.886 -14.788 -22.075  0.00  0.00    +0.000 C 
ATOM     22  O   UNL     1     -44.749 -14.328 -21.782  0.00  0.00    +0.000 OA
ATOM     23  N   UNL     1     -46.921 -14.845 -21.095  0.00  0.00    +0.000 NA
BRANCH  23  24
ATOM     24  C   UNL     1     -46.722 -14.377 -19.734  0.00  0.00    +0.000 C 
BRANCH  24  25
ATOM     25  C   UNL     1     -46.931 -15.518 -18.751  0.00  0.00    +0.000 C 
BRANCH  25  26
ATOM     26  C   UNL     1     -46.090 -16.703 -19.099  0.00  0.00    +0.000 A 
ATOM     27  C   UNL     1     -46.708 -17.886 -19.521  0.00  0.00    +0.000 A 
ATOM     28  C   UNL     1     -45.933 -18.996 -19.870  0.00  0.00    +0.000 A 
ATOM     29  C   UNL     1     -44.539 -18.925 -19.802  0.00  0.00    +0.000 A 
ATOM     30  C   UNL     1     -43.918 -17.742 -19.390  0.00  0.00    +0.000 A 
ATOM     31  C   UNL     1     -44.692 -16.632 -19.041  0.00  0.00    +0.000 A 
ATOM     32  O   UNL     1     -43.770 -20.028 -20.146  0.00  0.00    +0.000 OA
ENDBRANCH  25  26
ENDBRANCH  24  25
ENDBRANCH  23  24
ENDBRANCH  20  21
ENDBRANCH   1  20
TORSDOF 7
ENDMDL
MODEL 3
REMARK VINA RESULT:      -7.1     13.696     15.538
REMARK  Name = ZINC000253471412 PubChem-124891440
REMARK  7 active torsions:
REMARK  status: ('A' for Active; 'I' for Inactive)
REMARK    1  A    between atoms: C_5  and  C_6
REMARK    2  A    between atoms: C_6  and  C_7
REMARK    3  A    between atoms: C_6  and  C_17
REMARK    4  A    between atoms: C_7  and  C_8
REMARK    5  A    between atoms: C_9  and  C_10
REMARK    6  A    between atoms: C_9  and  N_32
REMARK    7  A    between atoms: C_10  and  C_11
REMARK                            x       y       z     vdW  Elec       q    Type
REMARK                         _______ _______ _______ _____ _____    ______ ____
ROOT
ATOM      1  C   UNL     1     -42.811 -19.707 -25.588  0.00  0.00    +0.000 C 
ENDROOT
BRANCH   1   6
ATOM      2  C   UNL     1     -46.552 -15.391 -24.892  0.00  0.00    +0.000 C 
ATOM      3  C   UNL     1     -45.558 -16.482 -25.065  0.00  0.00    +0.000 A 
ATOM      4  C   UNL     1     -44.200 -16.176 -25.124  0.00  0.00    +0.000 A 
ATOM      5  C   UNL     1     -43.283 -17.212 -25.287  0.00  0.00    +0.000 A 
ATOM      6  C   UNL     1     -43.743 -18.539 -25.384  0.00  0.00    +0.000 A 
ATOM      7  C   UNL     1     -45.130 -18.761 -25.320  0.00  0.00    +0.000 A 
ATOM      8  O   UNL     1     -41.928 -16.910 -25.346  0.00  0.00    +0.000 OA
ATOM      9  O   UNL     1     -45.594 -19.930 -25.410  0.00  0.00    +0.000 OA
ATOM     10  O   UNL     1     -45.971 -17.741 -25.163  0.00  0.00    +0.000 OA
ENDBRANCH   1   6
BRANCH   1  11
ATOM     11  C   UNL     1     -42.156 -19.694 -26.939  0.00  0.00    +0.000 A 
ATOM     12  C   UNL     1     -40.750 -19.819 -27.015  0.00  0.00    +0.000 A 
ATOM     13  C   UNL     1     -40.095 -19.807 -28.259  0.00  0.00    +0.000 A 
ATOM     14  C   UNL     1     -40.882 -19.665 -29.399  0.00  0.00    +0.000 A 
ATOM     15  C   UNL     1     -42.232 -19.543 -29.332  0.00  0.00    +0.000 A 
ATOM     16  C   UNL     1     -42.915 -19.553 -28.120  0.00  0.00    +0.000 A 
ATOM     17  C   UNL     1     -41.652 -19.465 -31.533  0.00  0.00    +0.000 C 
ATOM     18  O   UNL     1     -42.746 -19.419 -30.607  0.00  0.00    +0.000 OA
ATOM     19  O   UNL     1     -40.482 -19.622 -30.719  0.00  0.00    +0.000 OA
ENDBRANCH   1  11
BRANCH   1  20
ATOM     20  C   UNL     1     -41.823 -19.895 -24.437  0.00  0.00    +0.000 C 
BRANCH  20  21
ATOM     21  C   UNL     1     -42.537 -20.127 -23.149  0.00  0.00    +0.000 C 
ATOM     22  O   UNL     1     -42.870 -21.296 -22.814  0.00  0.00    +0.000 OA
ATOM     23  N   UNL     1     -42.839 -19.016 -22.306  0.00  0.00    +0.000 NA
BRANCH  23  24
ATOM     24  C   UNL     1     -43.528 -19.176 -21.036  0.00  0.00    +0.000 C 
BRANCH  24  25
ATOM     25  C   UNL     1     -45.030 -19.045 -21.235  0.00  0.00    +0.000 C 
BRANCH  25  26
ATOM     26  C   UNL     1     -45.545 -17.753 -20.689  0.00  0.00    +0.000 A 
ATOM     27  C   UNL     1     -45.427 -16.587 -21.453  0.00  0.00    +0.000 A 
ATOM     28  C   UNL     1     -45.923 -15.374 -20.963  0.00  0.00    +0.000 A 
ATOM     29  C   UNL     1     -46.543 -15.326 -19.711  0.00  0.00    +0.000 A 
ATOM     30  C   UNL     1     -46.671 -16.492 -18.950  0.00  0.00    +0.000 A 
ATOM     31  C   UNL     1     -46.176 -17.704 -19.438  0.00  0.00    +0.000 A 
ATOM     32  O   UNL     1     -47.033 -14.123 -19.225  0.00  0.00    +0.000 OA
ENDBRANCH  25  26
ENDBRANCH  24  25
ENDBRANCH  23  24
ENDBRANCH  20  21
ENDBRANCH   1  20
TORSDOF 7
ENDMDL
