MODEL 1
REMARK VINA RESULT:      -6.9      0.000      0.000
REMARK  Name = ZINC000408607104 PubChem-125618484
REMARK  6 active torsions:
REMARK  status: ('A' for Active; 'I' for Inactive)
REMARK    1  A    between atoms: C_2  and  C_3
REMARK    2  A    between atoms: C_3  and  N_22
REMARK    3  A    between atoms: C_4  and  C_5
REMARK    4  A    between atoms: C_6  and  C_7
REMARK    5  A    between atoms: C_8  and  N_25
REMARK    6  A    between atoms: N_23  and  N_24
REMARK                            x       y       z     vdW  Elec       q    Type
REMARK                         _______ _______ _______ _____ _____    ______ ____
ROOT
ATOM      1  C   UNL     1     -46.717  -6.506 -27.017  0.00  0.00    +0.000 A 
ATOM      2  C   UNL     1     -46.704  -6.340 -25.629  0.00  0.00    +0.000 A 
ATOM      3  C   UNL     1     -46.894  -4.982 -25.456  0.00  0.00    +0.000 A 
ATOM      4  C   UNL     1     -47.017  -4.253 -24.275  0.00  0.00    +0.000 A 
ATOM      5  C   UNL     1     -47.274  -2.875 -24.380  0.00  0.00    +0.000 A 
ATOM      6  C   UNL     1     -47.421  -2.269 -25.646  0.00  0.00    +0.000 A 
ATOM      7  C   UNL     1     -47.295  -3.031 -26.821  0.00  0.00    +0.000 A 
ATOM      8  C   UNL     1     -47.009  -4.391 -26.687  0.00  0.00    +0.000 A 
ATOM      9  N   UNL     1     -46.880  -5.319 -27.652  0.00  0.00    +0.000 N 
ATOM     10 CL   UNL     1     -47.434  -1.908 -22.931  0.00  0.00    +0.000 Cl
ENDROOT
BRANCH   9  12
ATOM     11  C   UNL     1     -45.956  -5.033 -29.965  0.00  0.00    +0.000 C 
ATOM     12  N   UNL     1     -47.043  -5.144 -29.038  0.00  0.00    +0.000 NA
ATOM     13  O   UNL     1     -44.789  -5.364 -29.622  0.00  0.00    +0.000 OA
BRANCH  11  14
ATOM     14  C   UNL     1     -46.215  -4.584 -31.337  0.00  0.00    +0.000 C 
ATOM     15  N   UNL     1     -45.734  -3.311 -31.770  0.00  0.00    +0.000 NA
ATOM     16  O   UNL     1     -46.859  -5.324 -32.130  0.00  0.00    +0.000 OA
BRANCH  15  17
ATOM     17  C   UNL     1     -45.964  -2.819 -33.119  0.00  0.00    +0.000 C 
BRANCH  17  19
ATOM     18  C   UNL     1     -44.407  -0.993 -32.528  0.00  0.00    +0.000 C 
ATOM     19  C   UNL     1     -44.758  -2.026 -33.577  0.00  0.00    +0.000 C 
ENDBRANCH  17  19
ENDBRANCH  15  17
ENDBRANCH  11  14
ENDBRANCH   9  12
BRANCH   1  20
ATOM     20  C   UNL     1     -46.568  -7.809 -27.691  0.00  0.00    +0.000 C 
ATOM     21  N   UNL     1     -45.618  -8.758 -27.185  0.00  0.00    +0.000 NA
ATOM     22  O   UNL     1     -47.271  -8.080 -28.702  0.00  0.00    +0.000 OA
BRANCH  21  23
ATOM     23  C   UNL     1     -45.343 -10.064 -27.709  0.00  0.00    +0.000 A 
ATOM     24  C   UNL     1     -44.605 -10.251 -28.887  0.00  0.00    +0.000 A 
ATOM     25  C   UNL     1     -44.359 -11.538 -29.369  0.00  0.00    +0.000 A 
ATOM     26  C   UNL     1     -44.844 -12.653 -28.680  0.00  0.00    +0.000 A 
ATOM     27  C   UNL     1     -44.564 -14.013 -29.220  0.00  0.00    +0.000 C 
ATOM     28  C   UNL     1     -45.585 -12.472 -27.498  0.00  0.00    +0.000 A 
ATOM     29  C   UNL     1     -45.828 -11.180 -27.022  0.00  0.00    +0.000 A 
ATOM     30 CL   UNL     1     -46.220 -13.838 -26.593  0.00  0.00    +0.000 Cl
ENDBRANCH  21  23
ENDBRANCH   1  20
TORSDOF 6
ENDMDL
MODEL 2
REMARK VINA RESULT:      -6.7      7.952     12.175
REMARK  Name = ZINC000408607104 PubChem-125618484
REMARK  6 active torsions:
REMARK  status: ('A' for Active; 'I' for Inactive)
REMARK    1  A    between atoms: C_2  and  C_3
REMARK    2  A    between atoms: C_3  and  N_22
REMARK    3  A    between atoms: C_4  and  C_5
REMARK    4  A    between atoms: C_6  and  C_7
REMARK    5  A    between atoms: C_8  and  N_25
REMARK    6  A    between atoms: N_23  and  N_24
REMARK                            x       y       z     vdW  Elec       q    Type
REMARK                         _______ _______ _______ _____ _____    ______ ____
ROOT
ATOM      1  C   UNL     1     -44.957 -15.878 -26.325  0.00  0.00    +0.000 A 
ATOM      2  C   UNL     1     -44.499 -15.413 -27.561  0.00  0.00    +0.000 A 
ATOM      3  C   UNL     1     -45.037 -14.144 -27.658  0.00  0.00    +0.000 A 
ATOM      4  C   UNL     1     -44.872 -13.191 -28.660  0.00  0.00    +0.000 A 
ATOM      5  C   UNL     1     -45.484 -11.938 -28.480  0.00  0.00    +0.000 A 
ATOM      6  C   UNL     1     -46.219 -11.663 -27.307  0.00  0.00    +0.000 A 
ATOM      7  C   UNL     1     -46.366 -12.643 -26.310  0.00  0.00    +0.000 A 
ATOM      8  C   UNL     1     -45.773 -13.888 -26.530  0.00  0.00    +0.000 A 
ATOM      9  N   UNL     1     -45.745 -14.958 -25.716  0.00  0.00    +0.000 N 
ATOM     10 CL   UNL     1     -45.315 -10.704 -29.708  0.00  0.00    +0.000 Cl
ENDROOT
BRANCH   9  12
ATOM     11  C   UNL     1     -45.588 -14.658 -23.232  0.00  0.00    +0.000 C 
ATOM     12  N   UNL     1     -46.280 -15.064 -24.419  0.00  0.00    +0.000 NA
ATOM     13  O   UNL     1     -44.565 -13.926 -23.308  0.00  0.00    +0.000 OA
BRANCH  11  14
ATOM     14  C   UNL     1     -46.108 -15.053 -21.918  0.00  0.00    +0.000 C 
ATOM     15  N   UNL     1     -45.583 -16.210 -21.265  0.00  0.00    +0.000 NA
ATOM     16  O   UNL     1     -47.014 -14.369 -21.369  0.00  0.00    +0.000 OA
BRANCH  15  17
ATOM     17  C   UNL     1     -46.064 -16.644 -19.964  0.00  0.00    +0.000 C 
BRANCH  17  19
ATOM     18  C   UNL     1     -46.739 -19.017 -19.819  0.00  0.00    +0.000 C 
ATOM     19  C   UNL     1     -45.579 -18.053 -19.694  0.00  0.00    +0.000 C 
ENDBRANCH  17  19
ENDBRANCH  15  17
ENDBRANCH  11  14
ENDBRANCH   9  12
BRANCH   1  20
ATOM     20  C   UNL     1     -44.620 -17.201 -25.768  0.00  0.00    +0.000 C 
ATOM     21  N   UNL     1     -43.505 -17.324 -24.873  0.00  0.00    +0.000 NA
ATOM     22  O   UNL     1     -45.308 -18.211 -26.079  0.00  0.00    +0.000 OA
BRANCH  21  23
ATOM     23  C   UNL     1     -43.037 -18.522 -24.241  0.00  0.00    +0.000 A 
ATOM     24  C   UNL     1     -43.494 -18.924 -22.977  0.00  0.00    +0.000 A 
ATOM     25  C   UNL     1     -43.013 -20.097 -22.392  0.00  0.00    +0.000 A 
ATOM     26  C   UNL     1     -42.071 -20.883 -23.062  0.00  0.00    +0.000 A 
ATOM     27  C   UNL     1     -41.578 -22.129 -22.410  0.00  0.00    +0.000 C 
ATOM     28  C   UNL     1     -41.608 -20.486 -24.329  0.00  0.00    +0.000 A 
ATOM     29  C   UNL     1     -42.094 -19.310 -24.908  0.00  0.00    +0.000 A 
ATOM     30 CL   UNL     1     -40.424 -21.435 -25.214  0.00  0.00    +0.000 Cl
ENDBRANCH  21  23
ENDBRANCH   1  20
TORSDOF 6
ENDMDL
MODEL 3
REMARK VINA RESULT:      -6.7      2.190      7.528
REMARK  Name = ZINC000408607104 PubChem-125618484
REMARK  6 active torsions:
REMARK  status: ('A' for Active; 'I' for Inactive)
REMARK    1  A    between atoms: C_2  and  C_3
REMARK    2  A    between atoms: C_3  and  N_22
REMARK    3  A    between atoms: C_4  and  C_5
REMARK    4  A    between atoms: C_6  and  C_7
REMARK    5  A    between atoms: C_8  and  N_25
REMARK    6  A    between atoms: N_23  and  N_24
REMARK                            x       y       z     vdW  Elec       q    Type
REMARK                         _______ _______ _______ _____ _____    ______ ____
ROOT
ATOM      1  C   UNL     1     -46.069  -9.220 -25.533  0.00  0.00    +0.000 A 
ATOM      2  C   UNL     1     -45.538 -10.262 -24.768  0.00  0.00    +0.000 A 
ATOM      3  C   UNL     1     -45.884 -11.400 -25.471  0.00  0.00    +0.000 A 
ATOM      4  C   UNL     1     -45.574 -12.731 -25.202  0.00  0.00    +0.000 A 
ATOM      5  C   UNL     1     -45.997 -13.702 -26.126  0.00  0.00    +0.000 A 
ATOM      6  C   UNL     1     -46.695 -13.324 -27.293  0.00  0.00    +0.000 A 
ATOM      7  C   UNL     1     -46.991 -11.972 -27.540  0.00  0.00    +0.000 A 
ATOM      8  C   UNL     1     -46.585 -11.032 -26.591  0.00  0.00    +0.000 A 
ATOM      9  N   UNL     1     -46.720  -9.695 -26.624  0.00  0.00    +0.000 N 
ATOM     10 CL   UNL     1     -45.640 -15.391 -25.838  0.00  0.00    +0.000 Cl
ENDROOT
BRANCH   9  12
ATOM     11  C   UNL     1     -46.526  -8.395 -28.759  0.00  0.00    +0.000 C 
ATOM     12  N   UNL     1     -47.276  -8.914 -27.654  0.00  0.00    +0.000 NA
ATOM     13  O   UNL     1     -45.376  -8.843 -29.016  0.00  0.00    +0.000 OA
BRANCH  11  14
ATOM     14  C   UNL     1     -47.124  -7.377 -29.629  0.00  0.00    +0.000 C 
ATOM     15  N   UNL     1     -46.988  -5.994 -29.301  0.00  0.00    +0.000 NA
ATOM     16  O   UNL     1     -47.756  -7.726 -30.663  0.00  0.00    +0.000 OA
BRANCH  15  17
ATOM     17  C   UNL     1     -47.563  -4.946 -30.128  0.00  0.00    +0.000 C 
BRANCH  17  19
ATOM     18  C   UNL     1     -46.171  -3.703 -31.748  0.00  0.00    +0.000 C 
ATOM     19  C   UNL     1     -46.558  -3.825 -30.290  0.00  0.00    +0.000 C 
ENDBRANCH  17  19
ENDBRANCH  15  17
ENDBRANCH  11  14
ENDBRANCH   9  12
BRANCH   1  20
ATOM     20  C   UNL     1     -45.934  -7.793 -25.187  0.00  0.00    +0.000 C 
ATOM     21  N   UNL     1     -47.049  -7.103 -24.605  0.00  0.00    +0.000 NA
ATOM     22  O   UNL     1     -44.848  -7.192 -25.403  0.00  0.00    +0.000 OA
BRANCH  21  23
ATOM     23  C   UNL     1     -47.097  -5.726 -24.208  0.00  0.00    +0.000 A 
ATOM     24  C   UNL     1     -47.045  -5.338 -22.861  0.00  0.00    +0.000 A 
ATOM     25  C   UNL     1     -47.096  -3.987 -22.513  0.00  0.00    +0.000 A 
ATOM     26  C   UNL     1     -47.198  -3.007 -23.505  0.00  0.00    +0.000 A 
ATOM     27  C   UNL     1     -47.250  -1.574 -23.100  0.00  0.00    +0.000 C 
ATOM     28  C   UNL     1     -47.252  -3.389 -24.857  0.00  0.00    +0.000 A 
ATOM     29  C   UNL     1     -47.200  -4.744 -25.198  0.00  0.00    +0.000 A 
ATOM     30 CL   UNL     1     -47.382  -2.200 -26.144  0.00  0.00    +0.000 Cl
ENDBRANCH  21  23
ENDBRANCH   1  20
TORSDOF 6
ENDMDL
