MODEL 1
REMARK VINA RESULT:      -6.4      0.000      0.000
REMARK  Name = ZINC000072242160 ZINC72242160 PubChem-95740374
REMARK  4 active torsions:
REMARK  status: ('A' for Active; 'I' for Inactive)
REMARK    1  A    between atoms: C_6  and  C_7
REMARK    2  A    between atoms: C_7  and  N_21
REMARK    3  A    between atoms: C_8  and  C_9
REMARK    4  A    between atoms: C_13  and  C_14
REMARK                            x       y       z     vdW  Elec       q    Type
REMARK                         _______ _______ _______ _____ _____    ______ ____
ROOT
ATOM      1  C   UNL     1     -44.603 -18.047 -26.192  0.00  0.00    +0.000 C 
ATOM      2  C   UNL     1     -43.582 -18.971 -26.868  0.00  0.00    +0.000 C 
ATOM      3  C   UNL     1     -42.387 -18.116 -26.999  0.00  0.00    +0.000 C 
ATOM      4  C   UNL     1     -41.505 -15.858 -26.257  0.00  0.00    +0.000 C 
ATOM      5  C   UNL     1     -43.897 -16.710 -25.893  0.00  0.00    +0.000 C 
ATOM      6  N   UNL     1     -42.574 -16.819 -26.476  0.00  0.00    +0.000 N 
ATOM      7  O   UNL     1     -41.302 -18.503 -27.510  0.00  0.00    +0.000 OA
ENDROOT
BRANCH   5   8
ATOM      8  C   UNL     1     -44.655 -15.560 -26.482  0.00  0.00    +0.000 A 
ATOM      9  C   UNL     1     -44.500 -15.198 -27.829  0.00  0.00    +0.000 A 
ATOM     10  C   UNL     1     -45.219 -14.122 -28.355  0.00  0.00    +0.000 A 
ATOM     11  C   UNL     1     -46.096 -13.401 -27.538  0.00  0.00    +0.000 A 
ATOM     12  C   UNL     1     -46.253 -13.759 -26.195  0.00  0.00    +0.000 A 
ATOM     13  C   UNL     1     -45.534 -14.835 -25.669  0.00  0.00    +0.000 A 
ATOM     14  F   UNL     1     -46.793 -12.358 -28.048  0.00  0.00    +0.000 F 
ENDBRANCH   5   8
BRANCH   1  15
ATOM     15  C   UNL     1     -45.119 -18.662 -24.933  0.00  0.00    +0.000 C 
ATOM     16  N   UNL     1     -44.521 -18.337 -23.677  0.00  0.00    +0.000 NA
ATOM     17  O   UNL     1     -46.086 -19.467 -24.992  0.00  0.00    +0.000 OA
BRANCH  16  18
ATOM     18  C   UNL     1     -44.994 -18.909 -22.427  0.00  0.00    +0.000 C 
BRANCH  18  24
ATOM     19  C   UNL     1     -46.047 -14.088 -21.633  0.00  0.00    +0.000 C 
ATOM     20  C   UNL     1     -45.966 -15.486 -21.136  0.00  0.00    +0.000 A 
ATOM     21  C   UNL     1     -46.335 -15.784 -19.820  0.00  0.00    +0.000 A 
ATOM     22  C   UNL     1     -46.262 -17.100 -19.354  0.00  0.00    +0.000 A 
ATOM     23  C   UNL     1     -45.818 -18.119 -20.202  0.00  0.00    +0.000 A 
ATOM     24  C   UNL     1     -45.441 -17.821 -21.516  0.00  0.00    +0.000 A 
ATOM     25  C   UNL     1     -45.522 -16.505 -21.984  0.00  0.00    +0.000 A 
ENDBRANCH  18  24
ENDBRANCH  16  18
ENDBRANCH   1  15
TORSDOF 4
ENDMDL
MODEL 2
REMARK VINA RESULT:      -6.3     10.292     13.937
REMARK  Name = ZINC000072242160 ZINC72242160 PubChem-95740374
REMARK  4 active torsions:
REMARK  status: ('A' for Active; 'I' for Inactive)
REMARK    1  A    between atoms: C_6  and  C_7
REMARK    2  A    between atoms: C_7  and  N_21
REMARK    3  A    between atoms: C_8  and  C_9
REMARK    4  A    between atoms: C_13  and  C_14
REMARK                            x       y       z     vdW  Elec       q    Type
REMARK                         _______ _______ _______ _____ _____    ______ ____
ROOT
ATOM      1  C   UNL     1     -45.594  -5.851 -27.620  0.00  0.00    +0.000 C 
ATOM      2  C   UNL     1     -44.637  -7.009 -27.310  0.00  0.00    +0.000 C 
ATOM      3  C   UNL     1     -45.285  -7.686 -26.170  0.00  0.00    +0.000 C 
ATOM      4  C   UNL     1     -47.455  -7.671 -24.860  0.00  0.00    +0.000 C 
ATOM      5  C   UNL     1     -46.803  -5.976 -26.673  0.00  0.00    +0.000 C 
ATOM      6  N   UNL     1     -46.499  -7.081 -25.783  0.00  0.00    +0.000 N 
ATOM      7  O   UNL     1     -44.814  -8.709 -25.606  0.00  0.00    +0.000 OA
ENDROOT
BRANCH   5   8
ATOM      8  C   UNL     1     -47.018  -4.708 -25.906  0.00  0.00    +0.000 A 
ATOM      9  C   UNL     1     -47.265  -3.492 -26.562  0.00  0.00    +0.000 A 
ATOM     10  C   UNL     1     -47.463  -2.323 -25.824  0.00  0.00    +0.000 A 
ATOM     11  C   UNL     1     -47.417  -2.362 -24.426  0.00  0.00    +0.000 A 
ATOM     12  C   UNL     1     -47.172  -3.571 -23.769  0.00  0.00    +0.000 A 
ATOM     13  C   UNL     1     -46.973  -4.741 -24.507  0.00  0.00    +0.000 A 
ATOM     14  F   UNL     1     -47.609  -1.228 -23.711  0.00  0.00    +0.000 F 
ENDBRANCH   5   8
BRANCH   1  15
ATOM     15  C   UNL     1     -46.035  -5.896 -29.045  0.00  0.00    +0.000 C 
ATOM     16  N   UNL     1     -45.068  -5.927 -30.096  0.00  0.00    +0.000 NA
ATOM     17  O   UNL     1     -47.266  -5.908 -29.310  0.00  0.00    +0.000 OA
BRANCH  16  18
ATOM     18  C   UNL     1     -45.452  -5.975 -31.497  0.00  0.00    +0.000 C 
BRANCH  18  24
ATOM     19  C   UNL     1     -42.963  -1.694 -32.176  0.00  0.00    +0.000 C 
ATOM     20  C   UNL     1     -44.158  -2.542 -32.427  0.00  0.00    +0.000 A 
ATOM     21  C   UNL     1     -45.194  -2.069 -33.240  0.00  0.00    +0.000 A 
ATOM     22  C   UNL     1     -46.315  -2.869 -33.479  0.00  0.00    +0.000 A 
ATOM     23  C   UNL     1     -46.403  -4.140 -32.906  0.00  0.00    +0.000 A 
ATOM     24  C   UNL     1     -45.371  -4.611 -32.086  0.00  0.00    +0.000 A 
ATOM     25  C   UNL     1     -44.246  -3.814 -31.854  0.00  0.00    +0.000 A 
ENDBRANCH  18  24
ENDBRANCH  16  18
ENDBRANCH   1  15
TORSDOF 4
ENDMDL
MODEL 3
REMARK VINA RESULT:      -6.2      1.922      3.076
REMARK  Name = ZINC000072242160 ZINC72242160 PubChem-95740374
REMARK  4 active torsions:
REMARK  status: ('A' for Active; 'I' for Inactive)
REMARK    1  A    between atoms: C_6  and  C_7
REMARK    2  A    between atoms: C_7  and  N_21
REMARK    3  A    between atoms: C_8  and  C_9
REMARK    4  A    between atoms: C_13  and  C_14
REMARK                            x       y       z     vdW  Elec       q    Type
REMARK                         _______ _______ _______ _____ _____    ______ ____
ROOT
ATOM      1  C   UNL     1     -45.569 -15.799 -25.122  0.00  0.00    +0.000 C 
ATOM      2  C   UNL     1     -46.171 -17.208 -25.033  0.00  0.00    +0.000 C 
ATOM      3  C   UNL     1     -45.134 -18.058 -25.649  0.00  0.00    +0.000 C 
ATOM      4  C   UNL     1     -42.746 -17.933 -26.491  0.00  0.00    +0.000 C 
ATOM      5  C   UNL     1     -44.157 -15.932 -25.725  0.00  0.00    +0.000 C 
ATOM      6  N   UNL     1     -44.003 -17.331 -26.074  0.00  0.00    +0.000 N 
ATOM      7  O   UNL     1     -45.236 -19.307 -25.771  0.00  0.00    +0.000 OA
ENDROOT
BRANCH   5   8
ATOM      8  C   UNL     1     -44.002 -15.053 -26.929  0.00  0.00    +0.000 A 
ATOM      9  C   UNL     1     -42.761 -14.492 -27.267  0.00  0.00    +0.000 A 
ATOM     10  C   UNL     1     -42.643 -13.676 -28.395  0.00  0.00    +0.000 A 
ATOM     11  C   UNL     1     -43.763 -13.418 -29.191  0.00  0.00    +0.000 A 
ATOM     12  C   UNL     1     -45.001 -13.977 -28.858  0.00  0.00    +0.000 A 
ATOM     13  C   UNL     1     -45.120 -14.792 -27.730  0.00  0.00    +0.000 A 
ATOM     14  F   UNL     1     -43.649 -12.628 -30.285  0.00  0.00    +0.000 F 
ENDBRANCH   5   8
BRANCH   1  15
ATOM     15  C   UNL     1     -45.508 -15.164 -23.773  0.00  0.00    +0.000 C 
ATOM     16  N   UNL     1     -44.600 -15.659 -22.787  0.00  0.00    +0.000 NA
ATOM     17  O   UNL     1     -46.263 -14.190 -23.515  0.00  0.00    +0.000 OA
BRANCH  16  18
ATOM     18  C   UNL     1     -44.504 -15.068 -21.462  0.00  0.00    +0.000 C 
BRANCH  18  24
ATOM     19  C   UNL     1     -46.586 -19.240 -19.659  0.00  0.00    +0.000 C 
ATOM     20  C   UNL     1     -46.467 -17.758 -19.662  0.00  0.00    +0.000 A 
ATOM     21  C   UNL     1     -47.241 -16.992 -18.784  0.00  0.00    +0.000 A 
ATOM     22  C   UNL     1     -47.125 -15.599 -18.783  0.00  0.00    +0.000 A 
ATOM     23  C   UNL     1     -46.237 -14.970 -19.662  0.00  0.00    +0.000 A 
ATOM     24  C   UNL     1     -45.468 -15.735 -20.546  0.00  0.00    +0.000 A 
ATOM     25  C   UNL     1     -45.579 -17.130 -20.540  0.00  0.00    +0.000 A 
ENDBRANCH  18  24
ENDBRANCH  16  18
ENDBRANCH   1  15
TORSDOF 4
ENDMDL
