MODEL 1
REMARK VINA RESULT:      -6.0      0.000      0.000
REMARK  Name = ZINC000229790166 PubChem-100856248
REMARK  4 active torsions:
REMARK  status: ('A' for Active; 'I' for Inactive)
REMARK    1  A    between atoms: C_4  and  C_5
REMARK    2  A    between atoms: C_6  and  C_7
REMARK    3  A    between atoms: C_6  and  N_19
REMARK    4  A    between atoms: C_11  and  C_12
REMARK                            x       y       z     vdW  Elec       q    Type
REMARK                         _______ _______ _______ _____ _____    ______ ____
ROOT
ATOM      1  C   UNL     1     -43.265 -14.598 -22.981  0.00  0.00    +0.000 C 
ATOM      2  C   UNL     1     -44.905 -15.227 -24.809  0.00  0.00    +0.000 C 
ATOM      3  C   UNL     1     -45.812 -16.324 -25.197  0.00  0.00    +0.000 C 
ATOM      4  C   UNL     1     -45.813 -17.232 -23.961  0.00  0.00    +0.000 C 
ATOM      5  C   UNL     1     -44.813 -16.644 -22.947  0.00  0.00    +0.000 C 
ATOM      6  N   UNL     1     -44.361 -15.389 -23.517  0.00  0.00    +0.000 N 
ATOM      7  O   UNL     1     -44.626 -14.252 -25.556  0.00  0.00    +0.000 OA
ENDROOT
BRANCH   5   8
ATOM      8  C   UNL     1     -45.464 -16.429 -21.614  0.00  0.00    +0.000 A 
ATOM      9  C   UNL     1     -45.468 -17.471 -20.682  0.00  0.00    +0.000 A 
ATOM     10  C   UNL     1     -46.069 -17.295 -19.431  0.00  0.00    +0.000 A 
ATOM     11  C   UNL     1     -46.670 -16.075 -19.111  0.00  0.00    +0.000 A 
ATOM     12  C   UNL     1     -46.670 -15.029 -20.039  0.00  0.00    +0.000 A 
ATOM     13  C   UNL     1     -46.068 -15.205 -21.288  0.00  0.00    +0.000 A 
ATOM     14  F   UNL     1     -47.252 -15.904 -17.899  0.00  0.00    +0.000 F 
ENDBRANCH   5   8
BRANCH   4  15
ATOM     15  C   UNL     1     -45.431 -18.628 -24.328  0.00  0.00    +0.000 C 
ATOM     16  N   UNL     1     -44.226 -19.201 -23.816  0.00  0.00    +0.000 NA
ATOM     17  O   UNL     1     -46.181 -19.291 -25.092  0.00  0.00    +0.000 OA
BRANCH  16  18
ATOM     18  C   UNL     1     -43.817 -20.556 -24.149  0.00  0.00    +0.000 C 
BRANCH  18  19
ATOM     19  C   UNL     1     -42.461 -20.849 -23.535  0.00  0.00    +0.000 C 
ATOM     20  C   UNL     1     -42.256 -19.982 -22.316  0.00  0.00    +0.000 C 
ATOM     21  C   UNL     1     -41.578 -20.891 -21.338  0.00  0.00    +0.000 C 
ATOM     22  C   UNL     1     -41.476 -22.208 -22.072  0.00  0.00    +0.000 C 
ATOM     23  O   UNL     1     -42.387 -22.192 -23.138  0.00  0.00    +0.000 OA
ENDBRANCH  18  19
ENDBRANCH  16  18
ENDBRANCH   4  15
TORSDOF 4
ENDMDL
MODEL 2
REMARK VINA RESULT:      -5.9      4.435      8.051
REMARK  Name = ZINC000229790166 PubChem-100856248
REMARK  4 active torsions:
REMARK  status: ('A' for Active; 'I' for Inactive)
REMARK    1  A    between atoms: C_4  and  C_5
REMARK    2  A    between atoms: C_6  and  C_7
REMARK    3  A    between atoms: C_6  and  N_19
REMARK    4  A    between atoms: C_11  and  C_12
REMARK                            x       y       z     vdW  Elec       q    Type
REMARK                         _______ _______ _______ _____ _____    ______ ____
ROOT
ATOM      1  C   UNL     1     -40.913 -19.288 -24.673  0.00  0.00    +0.000 C 
ATOM      2  C   UNL     1     -43.105 -20.503 -24.288  0.00  0.00    +0.000 C 
ATOM      3  C   UNL     1     -44.530 -20.426 -24.660  0.00  0.00    +0.000 C 
ATOM      4  C   UNL     1     -44.550 -19.348 -25.751  0.00  0.00    +0.000 C 
ATOM      5  C   UNL     1     -43.121 -18.787 -25.881  0.00  0.00    +0.000 C 
ATOM      6  N   UNL     1     -42.296 -19.595 -25.004  0.00  0.00    +0.000 N 
ATOM      7  O   UNL     1     -42.653 -21.284 -23.409  0.00  0.00    +0.000 OA
ENDROOT
BRANCH   5   8
ATOM      8  C   UNL     1     -42.640 -18.864 -27.299  0.00  0.00    +0.000 A 
ATOM      9  C   UNL     1     -42.214 -17.696 -27.938  0.00  0.00    +0.000 A 
ATOM     10  C   UNL     1     -41.761 -17.742 -29.260  0.00  0.00    +0.000 A 
ATOM     11  C   UNL     1     -41.736 -18.959 -29.948  0.00  0.00    +0.000 A 
ATOM     12  C   UNL     1     -42.162 -20.130 -29.315  0.00  0.00    +0.000 A 
ATOM     13  C   UNL     1     -42.613 -20.084 -27.992  0.00  0.00    +0.000 A 
ATOM     14  F   UNL     1     -41.297 -19.003 -31.229  0.00  0.00    +0.000 F 
ENDBRANCH   5   8
BRANCH   4  15
ATOM     15  C   UNL     1     -45.512 -18.261 -25.405  0.00  0.00    +0.000 C 
ATOM     16  N   UNL     1     -45.094 -16.894 -25.430  0.00  0.00    +0.000 NA
ATOM     17  O   UNL     1     -46.695 -18.561 -25.091  0.00  0.00    +0.000 OA
BRANCH  16  18
ATOM     18  C   UNL     1     -45.999 -15.806 -25.099  0.00  0.00    +0.000 C 
BRANCH  18  19
ATOM     19  C   UNL     1     -45.608 -14.560 -25.873  0.00  0.00    +0.000 C 
ATOM     20  C   UNL     1     -44.907 -14.953 -27.151  0.00  0.00    +0.000 C 
ATOM     21  C   UNL     1     -45.434 -13.983 -28.163  0.00  0.00    +0.000 C 
ATOM     22  C   UNL     1     -46.411 -13.134 -27.383  0.00  0.00    +0.000 C 
ATOM     23  O   UNL     1     -46.751 -13.819 -26.207  0.00  0.00    +0.000 OA
ENDBRANCH  18  19
ENDBRANCH  16  18
ENDBRANCH   4  15
TORSDOF 4
ENDMDL
MODEL 3
REMARK VINA RESULT:      -5.9      3.467      7.042
REMARK  Name = ZINC000229790166 PubChem-100856248
REMARK  4 active torsions:
REMARK  status: ('A' for Active; 'I' for Inactive)
REMARK    1  A    between atoms: C_4  and  C_5
REMARK    2  A    between atoms: C_6  and  C_7
REMARK    3  A    between atoms: C_6  and  N_19
REMARK    4  A    between atoms: C_11  and  C_12
REMARK                            x       y       z     vdW  Elec       q    Type
REMARK                         _______ _______ _______ _____ _____    ______ ____
ROOT
ATOM      1  C   UNL     1     -42.567 -19.892 -21.127  0.00  0.00    +0.000 C 
ATOM      2  C   UNL     1     -44.867 -19.141 -20.367  0.00  0.00    +0.000 C 
ATOM      3  C   UNL     1     -45.870 -18.093 -20.637  0.00  0.00    +0.000 C 
ATOM      4  C   UNL     1     -45.326 -17.404 -21.895  0.00  0.00    +0.000 C 
ATOM      5  C   UNL     1     -43.967 -18.045 -22.231  0.00  0.00    +0.000 C 
ATOM      6  N   UNL     1     -43.801 -19.138 -21.292  0.00  0.00    +0.000 N 
ATOM      7  O   UNL     1     -44.940 -19.947 -19.402  0.00  0.00    +0.000 OA
ENDROOT
BRANCH   5   8
ATOM      8  C   UNL     1     -43.940 -18.540 -23.646  0.00  0.00    +0.000 A 
ATOM      9  C   UNL     1     -45.044 -19.241 -24.143  0.00  0.00    +0.000 A 
ATOM     10  C   UNL     1     -45.042 -19.713 -25.459  0.00  0.00    +0.000 A 
ATOM     11  C   UNL     1     -43.935 -19.487 -26.281  0.00  0.00    +0.000 A 
ATOM     12  C   UNL     1     -42.828 -18.788 -25.790  0.00  0.00    +0.000 A 
ATOM     13  C   UNL     1     -42.830 -18.315 -24.474  0.00  0.00    +0.000 A 
ATOM     14  F   UNL     1     -43.935 -19.945 -27.557  0.00  0.00    +0.000 F 
ENDBRANCH   5   8
BRANCH   4  15
ATOM     15  C   UNL     1     -45.175 -15.936 -21.672  0.00  0.00    +0.000 C 
ATOM     16  N   UNL     1     -46.328 -15.092 -21.634  0.00  0.00    +0.000 NA
ATOM     17  O   UNL     1     -44.023 -15.451 -21.518  0.00  0.00    +0.000 OA
BRANCH  16  18
ATOM     18  C   UNL     1     -46.225 -13.657 -21.420  0.00  0.00    +0.000 C 
BRANCH  18  19
ATOM     19  C   UNL     1     -46.775 -13.302 -20.052  0.00  0.00    +0.000 C 
ATOM     20  C   UNL     1     -47.756 -14.359 -19.606  0.00  0.00    +0.000 C 
ATOM     21  C   UNL     1     -47.471 -14.521 -18.144  0.00  0.00    +0.000 C 
ATOM     22  C   UNL     1     -46.334 -13.561 -17.885  0.00  0.00    +0.000 C 
ATOM     23  O   UNL     1     -45.735 -13.241 -19.112  0.00  0.00    +0.000 OA
ENDBRANCH  18  19
ENDBRANCH  16  18
ENDBRANCH   4  15
TORSDOF 4
ENDMDL
