MODEL 1
REMARK VINA RESULT:      -5.9      0.000      0.000
REMARK  Name = ZINC000065307388 ZINC65307388 ChemDiv-P103-1197 MolPort-010-961-951 PubChem-53200924
REMARK  7 active torsions:
REMARK  status: ('A' for Active; 'I' for Inactive)
REMARK    1  A    between atoms: C_2  and  C_3
REMARK    2  A    between atoms: C_4  and  C_5
REMARK    3  A    between atoms: C_6  and  S_25
REMARK    4  A    between atoms: C_7  and  C_8
REMARK    5  A    between atoms: C_7  and  S_25
REMARK    6  A    between atoms: C_9  and  C_10
REMARK    7  A    between atoms: C_9  and  N_20
REMARK                            x       y       z     vdW  Elec       q    Type
REMARK                         _______ _______ _______ _____ _____    ______ ____
ROOT
ATOM      1  C   UNL     1     -45.370 -18.035 -22.578  0.00  0.00    +0.000 A 
ATOM      2  C   UNL     1     -45.059 -16.697 -22.224  0.00  0.00    +0.000 A 
ATOM      3  C   UNL     1     -45.717 -17.106 -19.970  0.00  0.00    +0.000 A 
ATOM      4  C   UNL     1     -46.040 -18.425 -20.273  0.00  0.00    +0.000 A 
ATOM      5  C   UNL     1     -45.864 -18.882 -21.577  0.00  0.00    +0.000 A 
ATOM      6  N   UNL     1     -45.241 -16.283 -20.939  0.00  0.00    +0.000 NA
ENDROOT
BRANCH   1   8
ATOM      7  C   UNL     1     -44.364 -19.261 -25.735  0.00  0.00    +0.000 A 
ATOM      8  C   UNL     1     -45.212 -18.600 -23.941  0.00  0.00    +0.000 A 
ATOM      9  N   UNL     1     -44.012 -18.715 -24.556  0.00  0.00    +0.000 NA
ATOM     10  N   UNL     1     -46.219 -19.054 -24.714  0.00  0.00    +0.000 NA
ATOM     11  O   UNL     1     -45.656 -19.454 -25.811  0.00  0.00    +0.000 OA
BRANCH   7  13
ATOM     12  C   UNL     1     -41.984 -19.610 -26.256  0.00  0.00    +0.000 C 
ATOM     13  C   UNL     1     -43.395 -19.607 -26.809  0.00  0.00    +0.000 C 
ENDBRANCH   7  13
ENDBRANCH   1   8
BRANCH   2  14
ATOM     14  S   UNL     1     -44.421 -15.493 -23.392  0.00  0.00    +0.000 S 
BRANCH  14  15
ATOM     15  C   UNL     1     -46.068 -15.195 -24.101  0.00  0.00    +0.000 C 
BRANCH  15  16
ATOM     16  C   UNL     1     -45.946 -14.816 -25.534  0.00  0.00    +0.000 C 
ATOM     17  N   UNL     1     -46.580 -13.629 -26.012  0.00  0.00    +0.000 NA
ATOM     18  O   UNL     1     -45.292 -15.553 -26.318  0.00  0.00    +0.000 OA
BRANCH  17  19
ATOM     19  C   UNL     1     -46.490 -13.214 -27.402  0.00  0.00    +0.000 C 
BRANCH  19  20
ATOM     20  C   UNL     1     -46.712 -11.746 -27.502  0.00  0.00    +0.000 A 
ATOM     21  C   UNL     1     -47.425  -9.717 -26.494  0.00  0.00    +0.000 A 
ATOM     22  C   UNL     1     -47.187  -9.019 -27.680  0.00  0.00    +0.000 A 
ATOM     23  C   UNL     1     -46.706  -9.711 -28.793  0.00  0.00    +0.000 A 
ATOM     24  C   UNL     1     -46.468 -11.084 -28.709  0.00  0.00    +0.000 A 
ATOM     25  N   UNL     1     -47.189 -11.056 -26.431  0.00  0.00    +0.000 NA
ENDBRANCH  19  20
ENDBRANCH  17  19
ENDBRANCH  15  16
ENDBRANCH  14  15
ENDBRANCH   2  14
TORSDOF 7
ENDMDL
MODEL 2
REMARK VINA RESULT:      -5.9      9.487     13.721
REMARK  Name = ZINC000065307388 ZINC65307388 ChemDiv-P103-1197 MolPort-010-961-951 PubChem-53200924
REMARK  7 active torsions:
REMARK  status: ('A' for Active; 'I' for Inactive)
REMARK    1  A    between atoms: C_2  and  C_3
REMARK    2  A    between atoms: C_4  and  C_5
REMARK    3  A    between atoms: C_6  and  S_25
REMARK    4  A    between atoms: C_7  and  C_8
REMARK    5  A    between atoms: C_7  and  S_25
REMARK    6  A    between atoms: C_9  and  C_10
REMARK    7  A    between atoms: C_9  and  N_20
REMARK                            x       y       z     vdW  Elec       q    Type
REMARK                         _______ _______ _______ _____ _____    ______ ____
ROOT
ATOM      1  C   UNL     1     -45.743  -3.001 -31.545  0.00  0.00    +0.000 A 
ATOM      2  C   UNL     1     -45.738  -3.295 -32.934  0.00  0.00    +0.000 A 
ATOM      3  C   UNL     1     -44.554  -1.278 -33.390  0.00  0.00    +0.000 A 
ATOM      4  C   UNL     1     -44.538  -0.948 -32.038  0.00  0.00    +0.000 A 
ATOM      5  C   UNL     1     -45.134  -1.812 -31.123  0.00  0.00    +0.000 A 
ATOM      6  N   UNL     1     -45.146  -2.428 -33.801  0.00  0.00    +0.000 NA
ENDROOT
BRANCH   1   8
ATOM      7  C   UNL     1     -46.611  -5.336 -29.040  0.00  0.00    +0.000 A 
ATOM      8  C   UNL     1     -46.354  -3.868 -30.507  0.00  0.00    +0.000 A 
ATOM      9  N   UNL     1     -45.666  -4.834 -29.856  0.00  0.00    +0.000 NA
ATOM     10  N   UNL     1     -47.637  -3.801 -30.098  0.00  0.00    +0.000 NA
ATOM     11  O   UNL     1     -47.756  -4.721 -29.192  0.00  0.00    +0.000 OA
BRANCH   7  13
ATOM     12  C   UNL     1     -44.893  -6.559 -27.772  0.00  0.00    +0.000 C 
ATOM     13  C   UNL     1     -46.373  -6.447 -28.080  0.00  0.00    +0.000 C 
ENDBRANCH   7  13
ENDBRANCH   1   8
BRANCH   2  14
ATOM     14  S   UNL     1     -46.479  -4.774 -33.629  0.00  0.00    +0.000 S 
BRANCH  14  15
ATOM     15  C   UNL     1     -44.859  -5.470 -34.072  0.00  0.00    +0.000 C 
BRANCH  15  16
ATOM     16  C   UNL     1     -44.854  -6.940 -33.841  0.00  0.00    +0.000 C 
ATOM     17  N   UNL     1     -46.061  -7.688 -33.997  0.00  0.00    +0.000 NA
ATOM     18  O   UNL     1     -43.786  -7.512 -33.499  0.00  0.00    +0.000 OA
BRANCH  17  19
ATOM     19  C   UNL     1     -46.109  -9.125 -33.785  0.00  0.00    +0.000 C 
BRANCH  19  20
ATOM     20  C   UNL     1     -46.482  -9.411 -32.374  0.00  0.00    +0.000 A 
ATOM     21  C   UNL     1     -46.298 -10.803 -30.457  0.00  0.00    +0.000 A 
ATOM     22  C   UNL     1     -47.205 -10.000 -29.761  0.00  0.00    +0.000 A 
ATOM     23  C   UNL     1     -47.756  -8.887 -30.397  0.00  0.00    +0.000 A 
ATOM     24  C   UNL     1     -47.399  -8.589 -31.713  0.00  0.00    +0.000 A 
ATOM     25  N   UNL     1     -45.960 -10.497 -31.740  0.00  0.00    +0.000 NA
ENDBRANCH  19  20
ENDBRANCH  17  19
ENDBRANCH  15  16
ENDBRANCH  14  15
ENDBRANCH   2  14
TORSDOF 7
ENDMDL
MODEL 3
REMARK VINA RESULT:      -5.7      5.157      7.735
REMARK  Name = ZINC000065307388 ZINC65307388 ChemDiv-P103-1197 MolPort-010-961-951 PubChem-53200924
REMARK  7 active torsions:
REMARK  status: ('A' for Active; 'I' for Inactive)
REMARK    1  A    between atoms: C_2  and  C_3
REMARK    2  A    between atoms: C_4  and  C_5
REMARK    3  A    between atoms: C_6  and  S_25
REMARK    4  A    between atoms: C_7  and  C_8
REMARK    5  A    between atoms: C_7  and  S_25
REMARK    6  A    between atoms: C_9  and  C_10
REMARK    7  A    between atoms: C_9  and  N_20
REMARK                            x       y       z     vdW  Elec       q    Type
REMARK                         _______ _______ _______ _____ _____    ______ ____
ROOT
ATOM      1  C   UNL     1     -42.120 -20.200 -17.979  0.00  0.00    +0.000 A 
ATOM      2  C   UNL     1     -41.120 -21.045 -18.528  0.00  0.00    +0.000 A 
ATOM      3  C   UNL     1     -39.554 -20.312 -16.888  0.00  0.00    +0.000 A 
ATOM      4  C   UNL     1     -40.502 -19.465 -16.320  0.00  0.00    +0.000 A 
ATOM      5  C   UNL     1     -41.780 -19.414 -16.870  0.00  0.00    +0.000 A 
ATOM      6  N   UNL     1     -39.881 -21.072 -17.964  0.00  0.00    +0.000 NA
ENDROOT
BRANCH   1   8
ATOM      7  C   UNL     1     -45.212 -19.368 -19.470  0.00  0.00    +0.000 A 
ATOM      8  C   UNL     1     -43.504 -20.088 -18.504  0.00  0.00    +0.000 A 
ATOM      9  N   UNL     1     -43.932 -19.030 -19.231  0.00  0.00    +0.000 NA
ATOM     10  N   UNL     1     -44.477 -21.003 -18.325  0.00  0.00    +0.000 NA
ATOM     11  O   UNL     1     -45.515 -20.523 -18.936  0.00  0.00    +0.000 OA
BRANCH   7  13
ATOM     12  C   UNL     1     -45.450 -17.930 -21.454  0.00  0.00    +0.000 C 
ATOM     13  C   UNL     1     -46.158 -18.528 -20.254  0.00  0.00    +0.000 C 
ENDBRANCH   7  13
ENDBRANCH   1   8
BRANCH   2  14
ATOM     14  S   UNL     1     -41.400 -22.107 -19.947  0.00  0.00    +0.000 S 
BRANCH  14  15
ATOM     15  C   UNL     1     -40.986 -20.779 -21.118  0.00  0.00    +0.000 C 
BRANCH  15  16
ATOM     16  C   UNL     1     -41.606 -21.055 -22.442  0.00  0.00    +0.000 C 
ATOM     17  N   UNL     1     -41.591 -20.050 -23.456  0.00  0.00    +0.000 NA
ATOM     18  O   UNL     1     -42.150 -22.171 -22.653  0.00  0.00    +0.000 OA
BRANCH  17  19
ATOM     19  C   UNL     1     -42.182 -20.270 -24.766  0.00  0.00    +0.000 C 
BRANCH  19  20
ATOM     20  C   UNL     1     -43.410 -19.443 -24.907  0.00  0.00    +0.000 A 
ATOM     21  C   UNL     1     -44.409 -17.312 -25.234  0.00  0.00    +0.000 A 
ATOM     22  C   UNL     1     -45.685 -17.868 -25.118  0.00  0.00    +0.000 A 
ATOM     23  C   UNL     1     -45.811 -19.240 -24.888  0.00  0.00    +0.000 A 
ATOM     24  C   UNL     1     -44.670 -20.036 -24.778  0.00  0.00    +0.000 A 
ATOM     25  N   UNL     1     -43.307 -18.103 -25.124  0.00  0.00    +0.000 NA
ENDBRANCH  19  20
ENDBRANCH  17  19
ENDBRANCH  15  16
ENDBRANCH  14  15
ENDBRANCH   2  14
TORSDOF 7
ENDMDL
