MODEL 1
REMARK VINA RESULT:      -7.9      0.000      0.000
REMARK  Name = ZINC000253471122
REMARK  7 active torsions:
REMARK  status: ('A' for Active; 'I' for Inactive)
REMARK    1  A    between atoms: C_7  and  C_8
REMARK    2  A    between atoms: C_8  and  C_9
REMARK    3  A    between atoms: C_9  and  C_10
REMARK    4  A    between atoms: C_9  and  C_17
REMARK    5  A    between atoms: C_26  and  C_27
REMARK    6  A    between atoms: C_26  and  N_34
REMARK    7  A    between atoms: C_27  and  C_28
REMARK                            x       y       z     vdW  Elec       q    Type
REMARK                         _______ _______ _______ _____ _____    ______ ____
ROOT
ATOM      1  C   UNL     1     -45.736  -5.658 -30.022  0.00  0.00    +0.000 C 
ENDROOT
BRANCH   1   5
ATOM      2  O   UNL     1     -42.928  -6.141 -30.420  0.00  0.00    +0.000 OA
ATOM      3  O   UNL     1     -42.565  -4.210 -31.476  0.00  0.00    +0.000 OA
ATOM      4  O   UNL     1     -46.557  -3.155 -31.071  0.00  0.00    +0.000 OA
ATOM      5  C   UNL     1     -44.756  -4.735 -30.701  0.00  0.00    +0.000 A 
ATOM      6  C   UNL     1     -43.388  -5.055 -30.861  0.00  0.00    +0.000 A 
ATOM      7  C   UNL     1     -42.969  -3.043 -31.966  0.00  0.00    +0.000 A 
ATOM      8  C   UNL     1     -42.052  -2.201 -32.601  0.00  0.00    +0.000 A 
ATOM      9  C   UNL     1     -42.471  -0.972 -33.119  0.00  0.00    +0.000 A 
ATOM     10  C   UNL     1     -43.810  -0.581 -33.006  0.00  0.00    +0.000 A 
ATOM     11  C   UNL     1     -44.734  -1.418 -32.372  0.00  0.00    +0.000 A 
ATOM     12  C   UNL     1     -44.320  -2.650 -31.848  0.00  0.00    +0.000 A 
ATOM     13  C   UNL     1     -45.216  -3.510 -31.206  0.00  0.00    +0.000 A 
ENDBRANCH   1   5
BRANCH   1  16
ATOM     14  O   UNL     1     -45.511 -10.645 -30.184  0.00  0.00    +0.000 OA
ATOM     15  O   UNL     1     -46.113 -10.761 -32.377  0.00  0.00    +0.000 OA
ATOM     16  C   UNL     1     -45.870  -6.979 -30.721  0.00  0.00    +0.000 A 
ATOM     17  C   UNL     1     -46.253  -7.056 -32.083  0.00  0.00    +0.000 A 
ATOM     18  C   UNL     1     -46.362  -8.302 -32.728  0.00  0.00    +0.000 A 
ATOM     19  C   UNL     1     -46.081  -9.439 -31.977  0.00  0.00    +0.000 A 
ATOM     20  C   UNL     1     -45.720  -9.372 -30.671  0.00  0.00    +0.000 A 
ATOM     21  C   UNL     1     -45.600  -8.158 -29.999  0.00  0.00    +0.000 A 
ATOM     22  C   UNL     1     -45.754 -11.574 -31.250  0.00  0.00    +0.000 C 
ENDBRANCH   1  16
BRANCH   1  23
ATOM     23  C   UNL     1     -45.500  -5.783 -28.518  0.00  0.00    +0.000 C 
BRANCH  23  25
ATOM     24  O   UNL     1     -47.581  -4.642 -28.358  0.00  0.00    +0.000 OA
ATOM     25  C   UNL     1     -46.651  -5.232 -27.748  0.00  0.00    +0.000 C 
ATOM     26  N   UNL     1     -46.701  -5.394 -26.328  0.00  0.00    +0.000 NA
BRANCH  26  27
ATOM     27  C   UNL     1     -47.754  -4.814 -25.507  0.00  0.00    +0.000 C 
BRANCH  27  28
ATOM     28  C   UNL     1     -47.506  -3.327 -25.293  0.00  0.00    +0.000 C 
BRANCH  28  29
ATOM     29  C   UNL     1     -47.169  -3.036 -23.867  0.00  0.00    +0.000 A 
ATOM     30  C   UNL     1     -46.772  -4.067 -23.006  0.00  0.00    +0.000 A 
ATOM     31  C   UNL     1     -46.463  -3.785 -21.672  0.00  0.00    +0.000 A 
ATOM     32  C   UNL     1     -46.553  -2.473 -21.196  0.00  0.00    +0.000 A 
ATOM     33  C   UNL     1     -46.955  -1.444 -22.052  0.00  0.00    +0.000 A 
ATOM     34  C   UNL     1     -47.266  -1.726 -23.386  0.00  0.00    +0.000 A 
ATOM     35  F   UNL     1     -46.250  -2.200 -19.904  0.00  0.00    +0.000 F 
ENDBRANCH  28  29
ENDBRANCH  27  28
ENDBRANCH  26  27
ENDBRANCH  23  25
ENDBRANCH   1  23
TORSDOF 7
ENDMDL
MODEL 2
REMARK VINA RESULT:      -7.8     10.254     14.093
REMARK  Name = ZINC000253471122
REMARK  7 active torsions:
REMARK  status: ('A' for Active; 'I' for Inactive)
REMARK    1  A    between atoms: C_7  and  C_8
REMARK    2  A    between atoms: C_8  and  C_9
REMARK    3  A    between atoms: C_9  and  C_10
REMARK    4  A    between atoms: C_9  and  C_17
REMARK    5  A    between atoms: C_26  and  C_27
REMARK    6  A    between atoms: C_26  and  N_34
REMARK    7  A    between atoms: C_27  and  C_28
REMARK                            x       y       z     vdW  Elec       q    Type
REMARK                         _______ _______ _______ _____ _____    ______ ____
ROOT
ATOM      1  C   UNL     1     -44.955 -15.399 -24.287  0.00  0.00    +0.000 C 
ENDROOT
BRANCH   1   5
ATOM      2  O   UNL     1     -46.410 -17.772 -25.018  0.00  0.00    +0.000 OA
ATOM      3  O   UNL     1     -44.834 -19.174 -24.296  0.00  0.00    +0.000 OA
ATOM      4  O   UNL     1     -42.456 -15.996 -23.089  0.00  0.00    +0.000 OA
ATOM      5  C   UNL     1     -44.503 -16.824 -24.088  0.00  0.00    +0.000 A 
ATOM      6  C   UNL     1     -45.281 -17.936 -24.485  0.00  0.00    +0.000 A 
ATOM      7  C   UNL     1     -43.657 -19.434 -23.736  0.00  0.00    +0.000 A 
ATOM      8  C   UNL     1     -43.246 -20.760 -23.566  0.00  0.00    +0.000 A 
ATOM      9  C   UNL     1     -42.008 -21.040 -22.979  0.00  0.00    +0.000 A 
ATOM     10  C   UNL     1     -41.176 -19.996 -22.562  0.00  0.00    +0.000 A 
ATOM     11  C   UNL     1     -41.580 -18.667 -22.729  0.00  0.00    +0.000 A 
ATOM     12  C   UNL     1     -42.819 -18.379 -23.315  0.00  0.00    +0.000 A 
ATOM     13  C   UNL     1     -43.256 -17.063 -23.495  0.00  0.00    +0.000 A 
ENDBRANCH   1   5
BRANCH   1  16
ATOM     14  O   UNL     1     -46.914 -12.962 -28.183  0.00  0.00    +0.000 OA
ATOM     15  O   UNL     1     -45.359 -13.738 -29.655  0.00  0.00    +0.000 OA
ATOM     16  C   UNL     1     -44.985 -14.996 -25.732  0.00  0.00    +0.000 A 
ATOM     17  C   UNL     1     -44.015 -15.469 -26.650  0.00  0.00    +0.000 A 
ATOM     18  C   UNL     1     -44.064 -15.092 -28.005  0.00  0.00    +0.000 A 
ATOM     19  C   UNL     1     -45.095 -14.244 -28.397  0.00  0.00    +0.000 A 
ATOM     20  C   UNL     1     -46.024 -13.783 -27.521  0.00  0.00    +0.000 A 
ATOM     21  C   UNL     1     -46.009 -14.135 -26.174  0.00  0.00    +0.000 A 
ATOM     22  C   UNL     1     -46.524 -12.904 -29.563  0.00  0.00    +0.000 C 
ENDBRANCH   1  16
BRANCH   1  23
ATOM     23  C   UNL     1     -46.241 -15.066 -23.532  0.00  0.00    +0.000 C 
BRANCH  23  25
ATOM     24  O   UNL     1     -44.818 -14.110 -21.882  0.00  0.00    +0.000 OA
ATOM     25  C   UNL     1     -45.943 -14.611 -22.144  0.00  0.00    +0.000 C 
ATOM     26  N   UNL     1     -46.941 -14.728 -21.127  0.00  0.00    +0.000 NA
BRANCH  26  27
ATOM     27  C   UNL     1     -46.692 -14.376 -19.736  0.00  0.00    +0.000 C 
BRANCH  27  28
ATOM     28  C   UNL     1     -46.921 -15.580 -18.833  0.00  0.00    +0.000 C 
BRANCH  28  29
ATOM     29  C   UNL     1     -46.029 -16.716 -19.212  0.00  0.00    +0.000 A 
ATOM     30  C   UNL     1     -46.571 -17.957 -19.572  0.00  0.00    +0.000 A 
ATOM     31  C   UNL     1     -45.726 -19.015 -19.923  0.00  0.00    +0.000 A 
ATOM     32  C   UNL     1     -44.339 -18.835 -19.911  0.00  0.00    +0.000 A 
ATOM     33  C   UNL     1     -43.796 -17.600 -19.546  0.00  0.00    +0.000 A 
ATOM     34  C   UNL     1     -44.640 -16.542 -19.194  0.00  0.00    +0.000 A 
ATOM     35  F   UNL     1     -43.521 -19.860 -20.254  0.00  0.00    +0.000 F 
ENDBRANCH  28  29
ENDBRANCH  27  28
ENDBRANCH  26  27
ENDBRANCH  23  25
ENDBRANCH   1  23
TORSDOF 7
ENDMDL
MODEL 3
REMARK VINA RESULT:      -7.8      1.391      2.164
REMARK  Name = ZINC000253471122
REMARK  7 active torsions:
REMARK  status: ('A' for Active; 'I' for Inactive)
REMARK    1  A    between atoms: C_7  and  C_8
REMARK    2  A    between atoms: C_8  and  C_9
REMARK    3  A    between atoms: C_9  and  C_10
REMARK    4  A    between atoms: C_9  and  C_17
REMARK    5  A    between atoms: C_26  and  C_27
REMARK    6  A    between atoms: C_26  and  N_34
REMARK    7  A    between atoms: C_27  and  C_28
REMARK                            x       y       z     vdW  Elec       q    Type
REMARK                         _______ _______ _______ _____ _____    ______ ____
ROOT
ATOM      1  C   UNL     1     -45.935  -5.837 -31.062  0.00  0.00    +0.000 C 
ENDROOT
BRANCH   1   5
ATOM      2  O   UNL     1     -43.093  -6.288 -31.053  0.00  0.00    +0.000 OA
ATOM      3  O   UNL     1     -42.586  -4.233 -31.755  0.00  0.00    +0.000 OA
ATOM      4  O   UNL     1     -46.604  -3.204 -31.872  0.00  0.00    +0.000 OA
ATOM      5  C   UNL     1     -44.868  -4.838 -31.434  0.00  0.00    +0.000 A 
ATOM      6  C   UNL     1     -43.488  -5.147 -31.408  0.00  0.00    +0.000 A 
ATOM      7  C   UNL     1     -42.919  -3.004 -32.136  0.00  0.00    +0.000 A 
ATOM      8  C   UNL     1     -41.920  -2.091 -32.487  0.00  0.00    +0.000 A 
ATOM      9  C   UNL     1     -42.265  -0.797 -32.891  0.00  0.00    +0.000 A 
ATOM     10  C   UNL     1     -43.609  -0.412 -32.947  0.00  0.00    +0.000 A 
ATOM     11  C   UNL     1     -44.614  -1.321 -32.598  0.00  0.00    +0.000 A 
ATOM     12  C   UNL     1     -44.276  -2.618 -32.191  0.00  0.00    +0.000 A 
ATOM     13  C   UNL     1     -45.254  -3.550 -31.832  0.00  0.00    +0.000 A 
ENDBRANCH   1   5
BRANCH   1  16
ATOM     14  O   UNL     1     -46.266  -7.667 -35.698  0.00  0.00    +0.000 OA
ATOM     15  O   UNL     1     -46.390  -9.833 -35.007  0.00  0.00    +0.000 OA
ATOM     16  C   UNL     1     -46.046  -6.962 -32.049  0.00  0.00    +0.000 A 
ATOM     17  C   UNL     1     -46.114  -8.312 -31.624  0.00  0.00    +0.000 A 
ATOM     18  C   UNL     1     -46.232  -9.355 -32.561  0.00  0.00    +0.000 A 
ATOM     19  C   UNL     1     -46.276  -9.004 -33.907  0.00  0.00    +0.000 A 
ATOM     20  C   UNL     1     -46.205  -7.714 -34.321  0.00  0.00    +0.000 A 
ATOM     21  C   UNL     1     -46.091  -6.655 -33.423  0.00  0.00    +0.000 A 
ATOM     22  C   UNL     1     -46.386  -9.012 -36.184  0.00  0.00    +0.000 C 
ENDBRANCH   1  16
BRANCH   1  23
ATOM     23  C   UNL     1     -45.840  -6.304 -29.610  0.00  0.00    +0.000 C 
BRANCH  23  25
ATOM     24  O   UNL     1     -47.720  -4.894 -29.237  0.00  0.00    +0.000 OA
ATOM     25  C   UNL     1     -46.741  -5.504 -28.732  0.00  0.00    +0.000 C 
ATOM     26  N   UNL     1     -46.499  -5.451 -27.324  0.00  0.00    +0.000 NA
BRANCH  26  27
ATOM     27  C   UNL     1     -47.290  -4.628 -26.420  0.00  0.00    +0.000 C 
BRANCH  27  28
ATOM     28  C   UNL     1     -47.044  -5.038 -24.974  0.00  0.00    +0.000 C 
BRANCH  28  29
ATOM     29  C   UNL     1     -47.085  -3.854 -24.064  0.00  0.00    +0.000 A 
ATOM     30  C   UNL     1     -47.281  -2.567 -24.581  0.00  0.00    +0.000 A 
ATOM     31  C   UNL     1     -47.314  -1.465 -23.721  0.00  0.00    +0.000 A 
ATOM     32  C   UNL     1     -47.149  -1.647 -22.344  0.00  0.00    +0.000 A 
ATOM     33  C   UNL     1     -46.948  -2.930 -21.827  0.00  0.00    +0.000 A 
ATOM     34  C   UNL     1     -46.913  -4.033 -22.687  0.00  0.00    +0.000 A 
ATOM     35  F   UNL     1     -47.185  -0.580 -21.511  0.00  0.00    +0.000 F 
ENDBRANCH  28  29
ENDBRANCH  27  28
ENDBRANCH  26  27
ENDBRANCH  23  25
ENDBRANCH   1  23
TORSDOF 7
ENDMDL
