MODEL 1
REMARK VINA RESULT:      -7.1      0.000      0.000
REMARK  Name = ZINC000072242200 ZINC72242200 PubChem-95740414
REMARK  2 active torsions:
REMARK  status: ('A' for Active; 'I' for Inactive)
REMARK    1  A    between atoms: C_7  and  C_8
REMARK    2  A    between atoms: C_11  and  C_12
REMARK                            x       y       z     vdW  Elec       q    Type
REMARK                         _______ _______ _______ _____ _____    ______ ____
ROOT
ATOM      1  C   UNL     1     -46.870  -5.314 -30.718  0.00  0.00    +0.000 C 
ATOM      2  C   UNL     1     -47.633  -6.515 -31.295  0.00  0.00    +0.000 C 
ATOM      3  C   UNL     1     -46.640  -7.147 -32.185  0.00  0.00    +0.000 C 
ATOM      4  C   UNL     1     -45.426  -5.377 -31.251  0.00  0.00    +0.000 C 
ATOM      5  C   UNL     1     -44.180  -7.017 -32.780  0.00  0.00    +0.000 C 
ATOM      6  N   UNL     1     -45.396  -6.483 -32.190  0.00  0.00    +0.000 N 
ATOM      7  O   UNL     1     -46.870  -8.184 -32.862  0.00  0.00    +0.000 OA
ENDROOT
BRANCH   1  14
ATOM      8  C   UNL     1     -47.716  -1.194 -24.656  0.00  0.00    +0.000 C 
ATOM      9  C   UNL     1     -47.465  -2.558 -25.186  0.00  0.00    +0.000 A 
ATOM     10  C   UNL     1     -47.297  -3.629 -24.307  0.00  0.00    +0.000 A 
ATOM     11  C   UNL     1     -47.061  -4.903 -24.824  0.00  0.00    +0.000 A 
ATOM     12  C   UNL     1     -46.998  -5.091 -26.205  0.00  0.00    +0.000 A 
ATOM     13  C   UNL     1     -47.171  -3.996 -27.062  0.00  0.00    +0.000 A 
ATOM     14  C   UNL     1     -46.884  -5.344 -29.227  0.00  0.00    +0.000 C 
ATOM     15  N   UNL     1     -47.399  -2.763 -26.530  0.00  0.00    +0.000 NA
ATOM     16  N   UNL     1     -47.115  -4.135 -28.488  0.00  0.00    +0.000 NA
ATOM     17  O   UNL     1     -46.691  -6.441 -28.636  0.00  0.00    +0.000 OA
ENDBRANCH   1  14
BRANCH   4  18
ATOM     18  C   UNL     1     -45.041  -4.091 -31.915  0.00  0.00    +0.000 A 
ATOM     19  C   UNL     1     -43.835  -3.477 -31.564  0.00  0.00    +0.000 A 
ATOM     20  C   UNL     1     -43.456  -2.275 -32.170  0.00  0.00    +0.000 A 
ATOM     21  C   UNL     1     -44.283  -1.684 -33.130  0.00  0.00    +0.000 A 
ATOM     22  C   UNL     1     -45.490  -2.293 -33.484  0.00  0.00    +0.000 A 
ATOM     23  C   UNL     1     -45.870  -3.495 -32.879  0.00  0.00    +0.000 A 
ATOM     24  F   UNL     1     -43.915  -0.519 -33.716  0.00  0.00    +0.000 F 
ENDBRANCH   4  18
TORSDOF 2
ENDMDL
MODEL 2
REMARK VINA RESULT:      -6.9      2.403      3.149
REMARK  Name = ZINC000072242200 ZINC72242200 PubChem-95740414
REMARK  2 active torsions:
REMARK  status: ('A' for Active; 'I' for Inactive)
REMARK    1  A    between atoms: C_7  and  C_8
REMARK    2  A    between atoms: C_11  and  C_12
REMARK                            x       y       z     vdW  Elec       q    Type
REMARK                         _______ _______ _______ _____ _____    ______ ____
ROOT
ATOM      1  C   UNL     1     -46.197  -3.643 -31.885  0.00  0.00    +0.000 C 
ATOM      2  C   UNL     1     -47.246  -4.240 -32.833  0.00  0.00    +0.000 C 
ATOM      3  C   UNL     1     -46.427  -4.939 -33.842  0.00  0.00    +0.000 C 
ATOM      4  C   UNL     1     -44.811  -4.119 -32.361  0.00  0.00    +0.000 C 
ATOM      5  C   UNL     1     -44.028  -5.626 -34.283  0.00  0.00    +0.000 C 
ATOM      6  N   UNL     1     -45.041  -4.842 -33.597  0.00  0.00    +0.000 N 
ATOM      7  O   UNL     1     -46.912  -5.573 -34.817  0.00  0.00    +0.000 OA
ENDROOT
BRANCH   1  14
ATOM      8  C   UNL     1     -43.758  -7.962 -26.421  0.00  0.00    +0.000 C 
ATOM      9  C   UNL     1     -44.783  -6.970 -26.837  0.00  0.00    +0.000 A 
ATOM     10  C   UNL     1     -45.775  -6.574 -25.938  0.00  0.00    +0.000 A 
ATOM     11  C   UNL     1     -46.729  -5.642 -26.347  0.00  0.00    +0.000 A 
ATOM     12  C   UNL     1     -46.680  -5.119 -27.640  0.00  0.00    +0.000 A 
ATOM     13  C   UNL     1     -45.671  -5.537 -28.518  0.00  0.00    +0.000 A 
ATOM     14  C   UNL     1     -46.448  -4.074 -30.478  0.00  0.00    +0.000 C 
ATOM     15  N   UNL     1     -44.753  -6.449 -28.093  0.00  0.00    +0.000 NA
ATOM     16  N   UNL     1     -45.576  -5.031 -29.856  0.00  0.00    +0.000 NA
ATOM     17  O   UNL     1     -47.428  -3.585 -29.856  0.00  0.00    +0.000 OA
ENDBRANCH   1  14
BRANCH   4  18
ATOM     18  C   UNL     1     -43.889  -2.958 -32.577  0.00  0.00    +0.000 A 
ATOM     19  C   UNL     1     -42.537  -3.090 -32.245  0.00  0.00    +0.000 A 
ATOM     20  C   UNL     1     -41.658  -2.020 -32.437  0.00  0.00    +0.000 A 
ATOM     21  C   UNL     1     -42.129  -0.812 -32.960  0.00  0.00    +0.000 A 
ATOM     22  C   UNL     1     -43.479  -0.674 -33.293  0.00  0.00    +0.000 A 
ATOM     23  C   UNL     1     -44.359  -1.744 -33.102  0.00  0.00    +0.000 A 
ATOM     24  F   UNL     1     -41.277   0.224 -33.145  0.00  0.00    +0.000 F 
ENDBRANCH   4  18
TORSDOF 2
ENDMDL
MODEL 3
REMARK VINA RESULT:      -6.2     13.922     16.778
REMARK  Name = ZINC000072242200 ZINC72242200 PubChem-95740414
REMARK  2 active torsions:
REMARK  status: ('A' for Active; 'I' for Inactive)
REMARK    1  A    between atoms: C_7  and  C_8
REMARK    2  A    between atoms: C_11  and  C_12
REMARK                            x       y       z     vdW  Elec       q    Type
REMARK                         _______ _______ _______ _____ _____    ______ ____
ROOT
ATOM      1  C   UNL     1     -45.568 -17.913 -24.189  0.00  0.00    +0.000 C 
ATOM      2  C   UNL     1     -46.382 -16.716 -24.702  0.00  0.00    +0.000 C 
ATOM      3  C   UNL     1     -45.859 -15.589 -23.907  0.00  0.00    +0.000 C 
ATOM      4  C   UNL     1     -44.540 -17.379 -23.174  0.00  0.00    +0.000 C 
ATOM      5  C   UNL     1     -43.987 -15.034 -22.291  0.00  0.00    +0.000 C 
ATOM      6  N   UNL     1     -44.836 -15.968 -23.012  0.00  0.00    +0.000 N 
ATOM      7  O   UNL     1     -46.268 -14.404 -24.023  0.00  0.00    +0.000 OA
ENDROOT
BRANCH   1  14
ATOM      8  C   UNL     1     -39.795 -17.633 -28.777  0.00  0.00    +0.000 C 
ATOM      9  C   UNL     1     -41.001 -18.398 -28.367  0.00  0.00    +0.000 A 
ATOM     10  C   UNL     1     -41.326 -19.590 -29.018  0.00  0.00    +0.000 A 
ATOM     11  C   UNL     1     -42.462 -20.294 -28.619  0.00  0.00    +0.000 A 
ATOM     12  C   UNL     1     -43.256 -19.803 -27.582  0.00  0.00    +0.000 A 
ATOM     13  C   UNL     1     -42.903 -18.603 -26.949  0.00  0.00    +0.000 A 
ATOM     14  C   UNL     1     -44.883 -18.610 -25.316  0.00  0.00    +0.000 C 
ATOM     15  N   UNL     1     -41.789 -17.935 -27.358  0.00  0.00    +0.000 NA
ATOM     16  N   UNL     1     -43.684 -18.055 -25.879  0.00  0.00    +0.000 NA
ATOM     17  O   UNL     1     -45.373 -19.683 -25.758  0.00  0.00    +0.000 OA
ENDBRANCH   1  14
BRANCH   4  18
ATOM     18  C   UNL     1     -44.645 -18.107 -21.869  0.00  0.00    +0.000 A 
ATOM     19  C   UNL     1     -45.900 -18.257 -21.271  0.00  0.00    +0.000 A 
ATOM     20  C   UNL     1     -46.023 -18.931 -20.052  0.00  0.00    +0.000 A 
ATOM     21  C   UNL     1     -44.889 -19.458 -19.427  0.00  0.00    +0.000 A 
ATOM     22  C   UNL     1     -43.632 -19.312 -20.020  0.00  0.00    +0.000 A 
ATOM     23  C   UNL     1     -43.508 -18.638 -21.239  0.00  0.00    +0.000 A 
ATOM     24  F   UNL     1     -45.009 -20.111 -18.246  0.00  0.00    +0.000 F 
ENDBRANCH   4  18
TORSDOF 2
ENDMDL
