MODEL 1
REMARK VINA RESULT:      -6.2      0.000      0.000
REMARK  Name = ZINC000096181230
REMARK  4 active torsions:
REMARK  status: ('A' for Active; 'I' for Inactive)
REMARK    1  A    between atoms: C_3  and  C_4
REMARK    2  A    between atoms: C_4  and  N_20
REMARK    3  A    between atoms: C_5  and  C_6
REMARK    4  A    between atoms: C_10  and  C_11
REMARK                            x       y       z     vdW  Elec       q    Type
REMARK                         _______ _______ _______ _____ _____    ______ ____
ROOT
ATOM      1  C   UNL     1     -43.684 -18.637 -21.105  0.00  0.00    +0.000 C 
ATOM      2  C   UNL     1     -42.423 -19.432 -20.739  0.00  0.00    +0.000 C 
ATOM      3  C   UNL     1     -42.783 -20.060 -19.453  0.00  0.00    +0.000 C 
ATOM      4  C   UNL     1     -44.783 -20.401 -17.931  0.00  0.00    +0.000 C 
ATOM      5  C   UNL     1     -44.747 -18.921 -20.027  0.00  0.00    +0.000 C 
ATOM      6  N   UNL     1     -44.091 -19.745 -19.029  0.00  0.00    +0.000 N 
ATOM      7  O   UNL     1     -42.011 -20.814 -18.803  0.00  0.00    +0.000 OA
ENDROOT
BRANCH   5   8
ATOM      8  C   UNL     1     -45.255 -17.645 -19.427  0.00  0.00    +0.000 A 
ATOM      9  C   UNL     1     -46.628 -17.422 -19.245  0.00  0.00    +0.000 A 
ATOM     10  C   UNL     1     -47.076 -16.224 -18.681  0.00  0.00    +0.000 A 
ATOM     11  C   UNL     1     -46.155 -15.244 -18.297  0.00  0.00    +0.000 A 
ATOM     12  C   UNL     1     -46.631 -13.970 -17.699  0.00  0.00    +0.000 C 
ATOM     13  C   UNL     1     -44.786 -15.464 -18.477  0.00  0.00    +0.000 A 
ATOM     14  C   UNL     1     -44.337 -16.662 -19.041  0.00  0.00    +0.000 A 
ENDBRANCH   5   8
BRANCH   1  15
ATOM     15  C   UNL     1     -44.188 -19.033 -22.452  0.00  0.00    +0.000 C 
ATOM     16  N   UNL     1     -45.353 -18.407 -22.996  0.00  0.00    +0.000 NA
ATOM     17  O   UNL     1     -43.572 -19.914 -23.109  0.00  0.00    +0.000 OA
BRANCH  16  18
ATOM     18  C   UNL     1     -45.863 -18.741 -24.316  0.00  0.00    +0.000 C 
BRANCH  18  21
ATOM     19  C   UNL     1     -46.509 -15.656 -24.681  0.00  0.00    +0.000 C 
ATOM     20  C   UNL     1     -45.542 -16.471 -25.475  0.00  0.00    +0.000 A 
ATOM     21  C   UNL     1     -45.281 -17.813 -25.325  0.00  0.00    +0.000 A 
ATOM     22  C   UNL     1     -44.295 -18.115 -26.250  0.00  0.00    +0.000 A 
ATOM     23  C   UNL     1     -44.699 -14.637 -26.945  0.00  0.00    +0.000 C 
ATOM     24  N   UNL     1     -44.002 -16.984 -26.931  0.00  0.00    +0.000 NA
ATOM     25  N   UNL     1     -44.756 -16.005 -26.457  0.00  0.00    +0.000 N 
ENDBRANCH  18  21
ENDBRANCH  16  18
ENDBRANCH   1  15
TORSDOF 4
ENDMDL
MODEL 2
REMARK VINA RESULT:      -6.2      2.503      7.384
REMARK  Name = ZINC000096181230
REMARK  4 active torsions:
REMARK  status: ('A' for Active; 'I' for Inactive)
REMARK    1  A    between atoms: C_3  and  C_4
REMARK    2  A    between atoms: C_4  and  N_20
REMARK    3  A    between atoms: C_5  and  C_6
REMARK    4  A    between atoms: C_10  and  C_11
REMARK                            x       y       z     vdW  Elec       q    Type
REMARK                         _______ _______ _______ _____ _____    ______ ____
ROOT
ATOM      1  C   UNL     1     -44.620 -17.727 -26.236  0.00  0.00    +0.000 C 
ATOM      2  C   UNL     1     -43.446 -18.624 -26.651  0.00  0.00    +0.000 C 
ATOM      3  C   UNL     1     -42.294 -17.702 -26.629  0.00  0.00    +0.000 C 
ATOM      4  C   UNL     1     -41.684 -15.345 -25.918  0.00  0.00    +0.000 C 
ATOM      5  C   UNL     1     -44.054 -16.330 -25.918  0.00  0.00    +0.000 C 
ATOM      6  N   UNL     1     -42.642 -16.389 -26.245  0.00  0.00    +0.000 N 
ATOM      7  O   UNL     1     -41.115 -18.049 -26.909  0.00  0.00    +0.000 OA
ENDROOT
BRANCH   5   8
ATOM      8  C   UNL     1     -44.752 -15.273 -26.719  0.00  0.00    +0.000 A 
ATOM      9  C   UNL     1     -45.716 -14.436 -26.138  0.00  0.00    +0.000 A 
ATOM     10  C   UNL     1     -46.350 -13.457 -26.907  0.00  0.00    +0.000 A 
ATOM     11  C   UNL     1     -46.025 -13.310 -28.259  0.00  0.00    +0.000 A 
ATOM     12  C   UNL     1     -46.701 -12.271 -29.077  0.00  0.00    +0.000 C 
ATOM     13  C   UNL     1     -45.065 -14.143 -28.842  0.00  0.00    +0.000 A 
ATOM     14  C   UNL     1     -44.430 -15.123 -28.073  0.00  0.00    +0.000 A 
ENDBRANCH   5   8
BRANCH   1  15
ATOM     15  C   UNL     1     -45.323 -18.289 -25.046  0.00  0.00    +0.000 C 
ATOM     16  N   UNL     1     -44.993 -17.829 -23.733  0.00  0.00    +0.000 NA
ATOM     17  O   UNL     1     -46.217 -19.162 -25.210  0.00  0.00    +0.000 OA
BRANCH  16  18
ATOM     18  C   UNL     1     -45.672 -18.327 -22.548  0.00  0.00    +0.000 C 
BRANCH  18  21
ATOM     19  C   UNL     1     -45.854 -18.295 -19.380  0.00  0.00    +0.000 C 
ATOM     20  C   UNL     1     -44.751 -18.863 -20.210  0.00  0.00    +0.000 A 
ATOM     21  C   UNL     1     -44.668 -18.855 -21.583  0.00  0.00    +0.000 A 
ATOM     22  C   UNL     1     -43.495 -19.523 -21.897  0.00  0.00    +0.000 A 
ATOM     23  C   UNL     1     -43.348 -19.731 -18.336  0.00  0.00    +0.000 C 
ATOM     24  N   UNL     1     -42.904 -19.894 -20.739  0.00  0.00    +0.000 NA
ATOM     25  N   UNL     1     -43.666 -19.492 -19.734  0.00  0.00    +0.000 N 
ENDBRANCH  18  21
ENDBRANCH  16  18
ENDBRANCH   1  15
TORSDOF 4
ENDMDL
MODEL 3
REMARK VINA RESULT:      -6.1     15.491     18.366
REMARK  Name = ZINC000096181230
REMARK  4 active torsions:
REMARK  status: ('A' for Active; 'I' for Inactive)
REMARK    1  A    between atoms: C_3  and  C_4
REMARK    2  A    between atoms: C_4  and  N_20
REMARK    3  A    between atoms: C_5  and  C_6
REMARK    4  A    between atoms: C_10  and  C_11
REMARK                            x       y       z     vdW  Elec       q    Type
REMARK                         _______ _______ _______ _____ _____    ______ ____
ROOT
ATOM      1  C   UNL     1     -45.549  -5.963 -33.511  0.00  0.00    +0.000 C 
ATOM      2  C   UNL     1     -45.788  -7.126 -32.538  0.00  0.00    +0.000 C 
ATOM      3  C   UNL     1     -46.390  -6.463 -31.365  0.00  0.00    +0.000 C 
ATOM      4  C   UNL     1     -47.309  -4.212 -30.642  0.00  0.00    +0.000 C 
ATOM      5  C   UNL     1     -46.108  -4.683 -32.861  0.00  0.00    +0.000 C 
ATOM      6  N   UNL     1     -46.543  -5.070 -31.532  0.00  0.00    +0.000 N 
ATOM      7  O   UNL     1     -46.747  -7.075 -30.323  0.00  0.00    +0.000 OA
ENDROOT
BRANCH   5   8
ATOM      8  C   UNL     1     -45.062  -3.612 -32.798  0.00  0.00    +0.000 A 
ATOM      9  C   UNL     1     -45.262  -2.362 -33.403  0.00  0.00    +0.000 A 
ATOM     10  C   UNL     1     -44.271  -1.380 -33.328  0.00  0.00    +0.000 A 
ATOM     11  C   UNL     1     -43.076  -1.641 -32.650  0.00  0.00    +0.000 A 
ATOM     12  C   UNL     1     -42.022  -0.597 -32.572  0.00  0.00    +0.000 C 
ATOM     13  C   UNL     1     -42.874  -2.886 -32.047  0.00  0.00    +0.000 A 
ATOM     14  C   UNL     1     -43.865  -3.870 -32.121  0.00  0.00    +0.000 A 
ENDBRANCH   5   8
BRANCH   1  15
ATOM     15  C   UNL     1     -46.219  -6.219 -34.819  0.00  0.00    +0.000 C 
ATOM     16  N   UNL     1     -45.905  -7.395 -35.570  0.00  0.00    +0.000 NA
ATOM     17  O   UNL     1     -47.072  -5.397 -35.249  0.00  0.00    +0.000 OA
BRANCH  16  18
ATOM     18  C   UNL     1     -46.554  -7.699 -36.834  0.00  0.00    +0.000 C 
BRANCH  18  21
ATOM     19  C   UNL     1     -47.620  -5.866 -39.195  0.00  0.00    +0.000 C 
ATOM     20  C   UNL     1     -46.213  -6.309 -38.968  0.00  0.00    +0.000 A 
ATOM     21  C   UNL     1     -45.760  -7.122 -37.954  0.00  0.00    +0.000 A 
ATOM     22  C   UNL     1     -44.390  -7.224 -38.132  0.00  0.00    +0.000 A 
ATOM     23  C   UNL     1     -45.178  -5.108 -40.897  0.00  0.00    +0.000 C 
ATOM     24  N   UNL     1     -44.057  -6.506 -39.228  0.00  0.00    +0.000 NA
ATOM     25  N   UNL     1     -45.158  -5.962 -39.721  0.00  0.00    +0.000 N 
ENDBRANCH  18  21
ENDBRANCH  16  18
ENDBRANCH   1  15
TORSDOF 4
ENDMDL
