MODEL 1
REMARK VINA RESULT:      -7.2      0.000      0.000
REMARK  Name = ZINC000096181382 ZINC96181382 PubChem-97457252
REMARK  4 active torsions:
REMARK  status: ('A' for Active; 'I' for Inactive)
REMARK    1  A    between atoms: C_5  and  C_8
REMARK    2  A    between atoms: C_9  and  C_13
REMARK    3  A    between atoms: C_14  and  C_15
REMARK    4  A    between atoms: C_14  and  N_24
REMARK                            x       y       z     vdW  Elec       q    Type
REMARK                         _______ _______ _______ _____ _____    ______ ____
ROOT
ATOM      1  C   UNL     1     -46.468  -6.266 -27.916  0.00  0.00    +0.000 C 
ATOM      2  C   UNL     1     -45.270  -5.746 -28.734  0.00  0.00    +0.000 C 
ATOM      3  C   UNL     1     -44.237  -6.876 -28.818  0.00  0.00    +0.000 C 
ATOM      4  C   UNL     1     -44.848  -7.954 -28.016  0.00  0.00    +0.000 C 
ATOM      5  C   UNL     1     -47.033  -8.542 -26.874  0.00  0.00    +0.000 C 
ATOM      6  O   UNL     1     -44.315  -9.082 -27.838  0.00  0.00    +0.000 OA
ATOM      7  N   UNL     1     -46.104  -7.601 -27.479  0.00  0.00    +0.000 N 
ENDROOT
BRANCH   1  12
ATOM      8  C   UNL     1     -47.538  -2.744 -23.453  0.00  0.00    +0.000 C 
ATOM      9  C   UNL     1     -47.264  -3.655 -24.594  0.00  0.00    +0.000 A 
ATOM     10  C   UNL     1     -47.438  -3.204 -25.906  0.00  0.00    +0.000 A 
ATOM     11  C   UNL     1     -47.178  -4.061 -26.980  0.00  0.00    +0.000 A 
ATOM     12  C   UNL     1     -46.747  -5.371 -26.747  0.00  0.00    +0.000 A 
ATOM     13  C   UNL     1     -46.571  -5.820 -25.429  0.00  0.00    +0.000 A 
ATOM     14  C   UNL     1     -46.829  -4.963 -24.356  0.00  0.00    +0.000 A 
ENDBRANCH   1  12
BRANCH   2  15
ATOM     15  C   UNL     1     -45.708  -5.328 -30.097  0.00  0.00    +0.000 C 
ATOM     16  O   UNL     1     -45.708  -6.173 -31.032  0.00  0.00    +0.000 OA
ATOM     17  N   UNL     1     -46.121  -3.981 -30.339  0.00  0.00    +0.000 NA
BRANCH  17  18
ATOM     18  C   UNL     1     -46.549  -3.529 -31.652  0.00  0.00    +0.000 C 
BRANCH  18  19
ATOM     19  C   UNL     1     -45.592  -2.515 -32.170  0.00  0.00    +0.000 A 
ATOM     20  C   UNL     1     -45.006  -2.684 -33.429  0.00  0.00    +0.000 A 
ATOM     21  C   UNL     1     -44.088  -1.743 -33.905  0.00  0.00    +0.000 A 
ATOM     22  C   UNL     1     -43.749  -0.635 -33.121  0.00  0.00    +0.000 A 
ATOM     23  C   UNL     1     -44.329  -0.470 -31.859  0.00  0.00    +0.000 A 
ATOM     24  C   UNL     1     -45.248  -1.410 -31.382  0.00  0.00    +0.000 A 
ENDBRANCH  18  19
ENDBRANCH  17  18
ENDBRANCH   2  15
TORSDOF 4
ENDMDL
MODEL 2
REMARK VINA RESULT:      -7.1      2.020      6.536
REMARK  Name = ZINC000096181382 ZINC96181382 PubChem-97457252
REMARK  4 active torsions:
REMARK  status: ('A' for Active; 'I' for Inactive)
REMARK    1  A    between atoms: C_5  and  C_8
REMARK    2  A    between atoms: C_9  and  C_13
REMARK    3  A    between atoms: C_14  and  C_15
REMARK    4  A    between atoms: C_14  and  N_24
REMARK                            x       y       z     vdW  Elec       q    Type
REMARK                         _______ _______ _______ _____ _____    ______ ____
ROOT
ATOM      1  C   UNL     1     -45.445  -6.188 -30.902  0.00  0.00    +0.000 C 
ATOM      2  C   UNL     1     -46.818  -6.085 -30.213  0.00  0.00    +0.000 C 
ATOM      3  C   UNL     1     -47.741  -7.131 -30.852  0.00  0.00    +0.000 C 
ATOM      4  C   UNL     1     -46.892  -7.738 -31.895  0.00  0.00    +0.000 C 
ATOM      5  C   UNL     1     -44.485  -7.760 -32.689  0.00  0.00    +0.000 C 
ATOM      6  O   UNL     1     -47.275  -8.667 -32.656  0.00  0.00    +0.000 OA
ATOM      7  N   UNL     1     -45.594  -7.186 -31.945  0.00  0.00    +0.000 N 
ENDROOT
BRANCH   1  12
ATOM      8  C   UNL     1     -43.788  -1.082 -33.061  0.00  0.00    +0.000 C 
ATOM      9  C   UNL     1     -44.220  -2.393 -32.511  0.00  0.00    +0.000 A 
ATOM     10  C   UNL     1     -43.303  -3.205 -31.836  0.00  0.00    +0.000 A 
ATOM     11  C   UNL     1     -43.710  -4.438 -31.317  0.00  0.00    +0.000 A 
ATOM     12  C   UNL     1     -45.033  -4.866 -31.474  0.00  0.00    +0.000 A 
ATOM     13  C   UNL     1     -45.951  -4.048 -32.150  0.00  0.00    +0.000 A 
ATOM     14  C   UNL     1     -45.545  -2.815 -32.667  0.00  0.00    +0.000 A 
ENDBRANCH   1  12
BRANCH   2  15
ATOM     15  C   UNL     1     -46.688  -6.322 -28.746  0.00  0.00    +0.000 C 
ATOM     16  O   UNL     1     -46.386  -7.472 -28.330  0.00  0.00    +0.000 OA
ATOM     17  N   UNL     1     -46.906  -5.252 -27.823  0.00  0.00    +0.000 NA
BRANCH  17  18
ATOM     18  C   UNL     1     -46.795  -5.439 -26.385  0.00  0.00    +0.000 C 
BRANCH  18  19
ATOM     19  C   UNL     1     -47.058  -4.149 -25.692  0.00  0.00    +0.000 A 
ATOM     20  C   UNL     1     -47.302  -2.990 -26.437  0.00  0.00    +0.000 A 
ATOM     21  C   UNL     1     -47.524  -1.774 -25.784  0.00  0.00    +0.000 A 
ATOM     22  C   UNL     1     -47.497  -1.713 -24.387  0.00  0.00    +0.000 A 
ATOM     23  C   UNL     1     -47.245  -2.869 -23.642  0.00  0.00    +0.000 A 
ATOM     24  C   UNL     1     -47.024  -4.087 -24.294  0.00  0.00    +0.000 A 
ENDBRANCH  18  19
ENDBRANCH  17  18
ENDBRANCH   2  15
TORSDOF 4
ENDMDL
MODEL 3
REMARK VINA RESULT:      -6.9      9.640     14.212
REMARK  Name = ZINC000096181382 ZINC96181382 PubChem-97457252
REMARK  4 active torsions:
REMARK  status: ('A' for Active; 'I' for Inactive)
REMARK    1  A    between atoms: C_5  and  C_8
REMARK    2  A    between atoms: C_9  and  C_13
REMARK    3  A    between atoms: C_14  and  C_15
REMARK    4  A    between atoms: C_14  and  N_24
REMARK                            x       y       z     vdW  Elec       q    Type
REMARK                         _______ _______ _______ _____ _____    ______ ____
ROOT
ATOM      1  C   UNL     1     -43.988 -16.598 -25.818  0.00  0.00    +0.000 C 
ATOM      2  C   UNL     1     -44.627 -17.956 -26.164  0.00  0.00    +0.000 C 
ATOM      3  C   UNL     1     -43.527 -18.858 -26.738  0.00  0.00    +0.000 C 
ATOM      4  C   UNL     1     -42.341 -17.979 -26.749  0.00  0.00    +0.000 C 
ATOM      5  C   UNL     1     -41.582 -15.710 -25.912  0.00  0.00    +0.000 C 
ATOM      6  O   UNL     1     -41.202 -18.346 -27.144  0.00  0.00    +0.000 OA
ATOM      7  N   UNL     1     -42.606 -16.685 -26.252  0.00  0.00    +0.000 N 
ENDROOT
BRANCH   1  12
ATOM      8  C   UNL     1     -46.806 -12.276 -28.436  0.00  0.00    +0.000 C 
ATOM      9  C   UNL     1     -46.077 -13.386 -27.769  0.00  0.00    +0.000 A 
ATOM     10  C   UNL     1     -46.309 -13.664 -26.419  0.00  0.00    +0.000 A 
ATOM     11  C   UNL     1     -45.624 -14.710 -25.792  0.00  0.00    +0.000 A 
ATOM     12  C   UNL     1     -44.703 -15.479 -26.512  0.00  0.00    +0.000 A 
ATOM     13  C   UNL     1     -44.473 -15.199 -27.868  0.00  0.00    +0.000 A 
ATOM     14  C   UNL     1     -45.159 -14.154 -28.494  0.00  0.00    +0.000 A 
ENDBRANCH   1  12
BRANCH   2  15
ATOM     15  C   UNL     1     -45.235 -18.573 -24.949  0.00  0.00    +0.000 C 
ATOM     16  O   UNL     1     -46.256 -19.303 -25.072  0.00  0.00    +0.000 OA
ATOM     17  N   UNL     1     -44.666 -18.335 -23.660  0.00  0.00    +0.000 NA
BRANCH  17  18
ATOM     18  C   UNL     1     -45.229 -18.911 -22.450  0.00  0.00    +0.000 C 
BRANCH  18  19
ATOM     19  C   UNL     1     -45.565 -17.826 -21.488  0.00  0.00    +0.000 A 
ATOM     20  C   UNL     1     -46.023 -18.145 -20.205  0.00  0.00    +0.000 A 
ATOM     21  C   UNL     1     -46.361 -17.126 -19.310  0.00  0.00    +0.000 A 
ATOM     22  C   UNL     1     -46.247 -15.787 -19.698  0.00  0.00    +0.000 A 
ATOM     23  C   UNL     1     -45.797 -15.468 -20.983  0.00  0.00    +0.000 A 
ATOM     24  C   UNL     1     -45.458 -16.487 -21.879  0.00  0.00    +0.000 A 
ENDBRANCH  18  19
ENDBRANCH  17  18
ENDBRANCH   2  15
TORSDOF 4
ENDMDL
