MODEL 1
REMARK VINA RESULT:      -7.6      0.000      0.000
REMARK  Name = ZINC000020135693 ZINC20135693 PubChem-92655552
REMARK  3 active torsions:
REMARK  status: ('A' for Active; 'I' for Inactive)
REMARK    1  A    between atoms: C_5  and  C_8
REMARK    2  A    between atoms: C_12  and  C_13
REMARK    3  A    between atoms: C_17  and  O_22
REMARK                            x       y       z     vdW  Elec       q    Type
REMARK                         _______ _______ _______ _____ _____    ______ ____
ROOT
ATOM      1  C   UNL     1     -47.160  -4.033 -31.532  0.00  0.00    +0.000 C 
ATOM      2  C   UNL     1     -47.045  -5.393 -32.234  0.00  0.00    +0.000 C 
ATOM      3  C   UNL     1     -46.080  -6.285 -31.521  0.00  0.00    +0.000 C 
ATOM      4  C   UNL     1     -46.566  -5.093 -29.408  0.00  0.00    +0.000 C 
ATOM      5  C   UNL     1     -47.160  -4.119 -27.122  0.00  0.00    +0.000 C 
ATOM      6  O   UNL     1     -45.443  -7.164 -32.154  0.00  0.00    +0.000 OA
ATOM      7  O   UNL     1     -47.756  -3.122 -27.614  0.00  0.00    +0.000 OA
ATOM      8  N   UNL     1     -45.908  -6.148 -30.112  0.00  0.00    +0.000 NA
ATOM      9  N   UNL     1     -47.168  -4.144 -30.067  0.00  0.00    +0.000 NA
ATOM     10  N   UNL     1     -46.562  -5.104 -27.976  0.00  0.00    +0.000 NA
ENDROOT
BRANCH   1  15
ATOM     11  C   UNL     1     -43.074  -0.304 -33.233  0.00  0.00    +0.000 C 
ATOM     12  C   UNL     1     -44.122  -1.266 -32.803  0.00  0.00    +0.000 A 
ATOM     13  C   UNL     1     -44.620  -2.207 -33.709  0.00  0.00    +0.000 A 
ATOM     14  C   UNL     1     -45.605  -3.112 -33.306  0.00  0.00    +0.000 A 
ATOM     15  C   UNL     1     -46.096  -3.081 -31.992  0.00  0.00    +0.000 A 
ATOM     16  C   UNL     1     -45.597  -2.134 -31.090  0.00  0.00    +0.000 A 
ATOM     17  C   UNL     1     -44.611  -1.229 -31.495  0.00  0.00    +0.000 A 
ENDBRANCH   1  15
BRANCH   5  18
ATOM     18  C   UNL     1     -47.078  -4.272 -25.658  0.00  0.00    +0.000 A 
ATOM     19  C   UNL     1     -47.238  -3.161 -24.818  0.00  0.00    +0.000 A 
ATOM     20  C   UNL     1     -47.160  -3.309 -23.431  0.00  0.00    +0.000 A 
ATOM     21  C   UNL     1     -46.919  -4.567 -22.873  0.00  0.00    +0.000 A 
ATOM     22  C   UNL     1     -46.757  -5.685 -23.697  0.00  0.00    +0.000 A 
ATOM     23  C   UNL     1     -46.837  -5.531 -25.092  0.00  0.00    +0.000 A 
BRANCH  22  25
ATOM     24  C   UNL     1     -47.486  -7.603 -22.317  0.00  0.00    +0.000 C 
ATOM     25  O   UNL     1     -46.518  -6.930 -23.110  0.00  0.00    +0.000 OA
ENDBRANCH  22  25
ENDBRANCH   5  18
TORSDOF 3
ENDMDL
MODEL 2
REMARK VINA RESULT:      -7.6      1.424      2.304
REMARK  Name = ZINC000020135693 ZINC20135693 PubChem-92655552
REMARK  3 active torsions:
REMARK  status: ('A' for Active; 'I' for Inactive)
REMARK    1  A    between atoms: C_5  and  C_8
REMARK    2  A    between atoms: C_12  and  C_13
REMARK    3  A    between atoms: C_17  and  O_22
REMARK                            x       y       z     vdW  Elec       q    Type
REMARK                         _______ _______ _______ _____ _____    ______ ____
ROOT
ATOM      1  C   UNL     1     -47.115  -4.164 -31.076  0.00  0.00    +0.000 C 
ATOM      2  C   UNL     1     -46.999  -5.594 -31.620  0.00  0.00    +0.000 C 
ATOM      3  C   UNL     1     -46.048  -6.405 -30.800  0.00  0.00    +0.000 C 
ATOM      4  C   UNL     1     -46.554  -4.984 -28.839  0.00  0.00    +0.000 C 
ATOM      5  C   UNL     1     -47.173  -3.760 -26.683  0.00  0.00    +0.000 C 
ATOM      6  O   UNL     1     -45.408  -7.352 -31.323  0.00  0.00    +0.000 OA
ATOM      7  O   UNL     1     -47.756  -2.821 -27.291  0.00  0.00    +0.000 OA
ATOM      8  N   UNL     1     -45.893  -6.114 -29.413  0.00  0.00    +0.000 NA
ATOM      9  N   UNL     1     -47.143  -4.112 -29.607  0.00  0.00    +0.000 NA
ATOM     10  N   UNL     1     -46.568  -4.837 -27.415  0.00  0.00    +0.000 NA
ENDROOT
BRANCH   1  15
ATOM     11  C   UNL     1     -42.933  -0.798 -33.235  0.00  0.00    +0.000 C 
ATOM     12  C   UNL     1     -44.009  -1.656 -32.675  0.00  0.00    +0.000 A 
ATOM     13  C   UNL     1     -44.733  -1.229 -31.559  0.00  0.00    +0.000 A 
ATOM     14  C   UNL     1     -45.745  -2.035 -31.032  0.00  0.00    +0.000 A 
ATOM     15  C   UNL     1     -46.040  -3.273 -31.623  0.00  0.00    +0.000 A 
ATOM     16  C   UNL     1     -45.310  -3.697 -32.739  0.00  0.00    +0.000 A 
ATOM     17  C   UNL     1     -44.297  -2.890 -33.265  0.00  0.00    +0.000 A 
ENDBRANCH   1  15
BRANCH   5  18
ATOM     18  C   UNL     1     -47.109  -3.750 -25.211  0.00  0.00    +0.000 A 
ATOM     19  C   UNL     1     -46.926  -4.944 -24.499  0.00  0.00    +0.000 A 
ATOM     20  C   UNL     1     -46.866  -4.931 -23.104  0.00  0.00    +0.000 A 
ATOM     21  C   UNL     1     -46.990  -3.726 -22.408  0.00  0.00    +0.000 A 
ATOM     22  C   UNL     1     -47.173  -2.526 -23.103  0.00  0.00    +0.000 A 
ATOM     23  C   UNL     1     -47.232  -2.544 -24.506  0.00  0.00    +0.000 A 
BRANCH  22  25
ATOM     24  C   UNL     1     -46.498  -1.049 -21.237  0.00  0.00    +0.000 C 
ATOM     25  O   UNL     1     -47.294  -1.337 -22.379  0.00  0.00    +0.000 OA
ENDBRANCH  22  25
ENDBRANCH   5  18
TORSDOF 3
ENDMDL
MODEL 3
REMARK VINA RESULT:      -6.9      1.508      1.733
REMARK  Name = ZINC000020135693 ZINC20135693 PubChem-92655552
REMARK  3 active torsions:
REMARK  status: ('A' for Active; 'I' for Inactive)
REMARK    1  A    between atoms: C_5  and  C_8
REMARK    2  A    between atoms: C_12  and  C_13
REMARK    3  A    between atoms: C_17  and  O_22
REMARK                            x       y       z     vdW  Elec       q    Type
REMARK                         _______ _______ _______ _____ _____    ______ ____
ROOT
ATOM      1  C   UNL     1     -47.078  -5.447 -30.978  0.00  0.00    +0.000 C 
ATOM      2  C   UNL     1     -47.016  -6.972 -31.144  0.00  0.00    +0.000 C 
ATOM      3  C   UNL     1     -46.128  -7.589 -30.112  0.00  0.00    +0.000 C 
ATOM      4  C   UNL     1     -46.618  -5.702 -28.589  0.00  0.00    +0.000 C 
ATOM      5  C   UNL     1     -47.235  -3.953 -26.831  0.00  0.00    +0.000 C 
ATOM      6  O   UNL     1     -45.519  -8.661 -30.357  0.00  0.00    +0.000 OA
ATOM      7  O   UNL     1     -47.756  -3.174 -27.676  0.00  0.00    +0.000 OA
ATOM      8  N   UNL     1     -45.996  -6.965 -28.837  0.00  0.00    +0.000 NA
ATOM      9  N   UNL     1     -47.143  -5.028 -29.572  0.00  0.00    +0.000 NA
ATOM     10  N   UNL     1     -46.663  -5.202 -27.248  0.00  0.00    +0.000 NA
ENDROOT
BRANCH   1  15
ATOM     11  C   UNL     1     -42.737  -2.739 -33.680  0.00  0.00    +0.000 C 
ATOM     12  C   UNL     1     -43.850  -3.441 -32.991  0.00  0.00    +0.000 A 
ATOM     13  C   UNL     1     -44.322  -4.658 -33.490  0.00  0.00    +0.000 A 
ATOM     14  C   UNL     1     -45.369  -5.320 -32.842  0.00  0.00    +0.000 A 
ATOM     15  C   UNL     1     -45.948  -4.766 -31.690  0.00  0.00    +0.000 A 
ATOM     16  C   UNL     1     -45.474  -3.545 -31.198  0.00  0.00    +0.000 A 
ATOM     17  C   UNL     1     -44.426  -2.884 -31.846  0.00  0.00    +0.000 A 
ENDBRANCH   1  15
BRANCH   5  18
ATOM     18  C   UNL     1     -47.211  -3.576 -25.406  0.00  0.00    +0.000 A 
ATOM     19  C   UNL     1     -47.331  -2.232 -25.025  0.00  0.00    +0.000 A 
ATOM     20  C   UNL     1     -47.309  -1.878 -23.674  0.00  0.00    +0.000 A 
ATOM     21  C   UNL     1     -47.166  -2.863 -22.694  0.00  0.00    +0.000 A 
ATOM     22  C   UNL     1     -47.045  -4.208 -23.057  0.00  0.00    +0.000 A 
ATOM     23  C   UNL     1     -47.068  -4.559 -24.417  0.00  0.00    +0.000 A 
BRANCH  22  25
ATOM     24  C   UNL     1     -47.344  -4.959 -20.720  0.00  0.00    +0.000 C 
ATOM     25  O   UNL     1     -46.904  -5.171 -22.054  0.00  0.00    +0.000 OA
ENDBRANCH  22  25
ENDBRANCH   5  18
TORSDOF 3
ENDMDL
