MODEL 1
REMARK VINA RESULT:      -5.7      0.000      0.000
REMARK  Name = ZINC000615451238 MolPort-044-610-126
REMARK  6 active torsions:
REMARK  status: ('A' for Active; 'I' for Inactive)
REMARK    1  A    between atoms: C_2  and  C_3
REMARK    2  A    between atoms: C_4  and  C_5
REMARK    3  A    between atoms: C_5  and  N_22
REMARK    4  A    between atoms: C_6  and  C_7
REMARK    5  A    between atoms: C_10  and  N_23
REMARK    6  A    between atoms: C_13  and  C_14
REMARK                            x       y       z     vdW  Elec       q    Type
REMARK                         _______ _______ _______ _____ _____    ______ ____
ROOT
ATOM      1  C   UNL     1     -47.027  -5.387 -30.303  0.00  0.00    +0.000 C 
ATOM      2  C   UNL     1     -47.301  -5.008 -28.840  0.00  0.00    +0.000 C 
ATOM      3  C   UNL     1     -46.201  -5.666 -28.109  0.00  0.00    +0.000 C 
ATOM      4  C   UNL     1     -45.782  -6.291 -30.328  0.00  0.00    +0.000 C 
ATOM      5  N   UNL     1     -45.314  -6.372 -28.953  0.00  0.00    +0.000 N 
ATOM      6  O   UNL     1     -46.066  -5.612 -26.857  0.00  0.00    +0.000 OA
ENDROOT
BRANCH   4   7
ATOM      7  C   UNL     1     -46.118  -7.648 -30.872  0.00  0.00    +0.000 A 
ATOM      8  C   UNL     1     -45.469  -8.375 -31.851  0.00  0.00    +0.000 A 
ATOM      9  C   UNL     1     -44.255  -7.971 -32.619  0.00  0.00    +0.000 C 
ATOM     10  C   UNL     1     -45.789 -10.605 -32.932  0.00  0.00    +0.000 C 
ATOM     11  C   UNL     1     -47.181  -8.436 -30.463  0.00  0.00    +0.000 A 
ATOM     12  N   UNL     1     -46.127  -9.536 -32.007  0.00  0.00    +0.000 N 
ATOM     13  N   UNL     1     -47.156  -9.583 -31.177  0.00  0.00    +0.000 NA
ENDBRANCH   4   7
BRANCH   1  14
ATOM     14  C   UNL     1     -46.794  -4.162 -31.123  0.00  0.00    +0.000 C 
ATOM     15  N   UNL     1     -46.725  -4.253 -32.547  0.00  0.00    +0.000 NA
ATOM     16  O   UNL     1     -46.663  -3.049 -30.547  0.00  0.00    +0.000 OA
BRANCH  15  17
ATOM     17  C   UNL     1     -46.523  -3.086 -33.389  0.00  0.00    +0.000 C 
BRANCH  17  19
ATOM     18  C   UNL     1     -43.318  -1.599 -33.360  0.00  0.00    +0.000 A 
ATOM     19  C   UNL     1     -45.085  -2.706 -33.371  0.00  0.00    +0.000 A 
ATOM     20  N   UNL     1     -44.653  -1.433 -33.276  0.00  0.00    +0.000 NA
ATOM     21  N   UNL     1     -44.081  -3.589 -33.516  0.00  0.00    +0.000 NA
ATOM     22  N   UNL     1     -42.961  -2.888 -33.501  0.00  0.00    +0.000 NA
BRANCH  18  24
ATOM     23  C   UNL     1     -41.317  -0.742 -32.203  0.00  0.00    +0.000 C 
ATOM     24  C   UNL     1     -42.338  -0.479 -33.294  0.00  0.00    +0.000 C 
ENDBRANCH  18  24
ENDBRANCH  17  19
ENDBRANCH  15  17
ENDBRANCH   1  14
BRANCH   5  25
ATOM     25  C   UNL     1     -44.169  -7.158 -28.497  0.00  0.00    +0.000 C 
ATOM     26  C   UNL     1     -43.119  -6.239 -27.896  0.00  0.00    +0.000 C 
ATOM     27  C   UNL     1     -42.930  -6.782 -29.293  0.00  0.00    +0.000 C 
ENDBRANCH   5  25
TORSDOF 6
ENDMDL
MODEL 2
REMARK VINA RESULT:      -5.6      1.873      2.388
REMARK  Name = ZINC000615451238 MolPort-044-610-126
REMARK  6 active torsions:
REMARK  status: ('A' for Active; 'I' for Inactive)
REMARK    1  A    between atoms: C_2  and  C_3
REMARK    2  A    between atoms: C_4  and  C_5
REMARK    3  A    between atoms: C_5  and  N_22
REMARK    4  A    between atoms: C_6  and  C_7
REMARK    5  A    between atoms: C_10  and  N_23
REMARK    6  A    between atoms: C_13  and  C_14
REMARK                            x       y       z     vdW  Elec       q    Type
REMARK                         _______ _______ _______ _____ _____    ______ ____
ROOT
ATOM      1  C   UNL     1     -46.498  -6.841 -27.977  0.00  0.00    +0.000 C 
ATOM      2  C   UNL     1     -46.396  -6.676 -26.454  0.00  0.00    +0.000 C 
ATOM      3  C   UNL     1     -44.979  -6.976 -26.174  0.00  0.00    +0.000 C 
ATOM      4  C   UNL     1     -45.114  -7.273 -28.495  0.00  0.00    +0.000 C 
ATOM      5  N   UNL     1     -44.235  -7.286 -27.335  0.00  0.00    +0.000 N 
ATOM      6  O   UNL     1     -44.479  -6.965 -25.017  0.00  0.00    +0.000 OA
ENDROOT
BRANCH   4   7
ATOM      7  C   UNL     1     -45.183  -8.624 -29.143  0.00  0.00    +0.000 A 
ATOM      8  C   UNL     1     -44.657  -9.034 -30.352  0.00  0.00    +0.000 A 
ATOM      9  C   UNL     1     -43.881  -8.208 -31.324  0.00  0.00    +0.000 C 
ATOM     10  C   UNL     1     -44.611 -11.166 -31.654  0.00  0.00    +0.000 C 
ATOM     11  C   UNL     1     -45.812  -9.737 -28.611  0.00  0.00    +0.000 A 
ATOM     12  N   UNL     1     -44.967 -10.330 -30.519  0.00  0.00    +0.000 N 
ATOM     13  N   UNL     1     -45.660 -10.763 -29.479  0.00  0.00    +0.000 NA
ENDBRANCH   4   7
BRANCH   1  14
ATOM     14  C   UNL     1     -46.911  -5.557 -28.613  0.00  0.00    +0.000 C 
ATOM     15  N   UNL     1     -46.900  -5.423 -30.036  0.00  0.00    +0.000 NA
ATOM     16  O   UNL     1     -47.273  -4.595 -27.884  0.00  0.00    +0.000 OA
BRANCH  15  17
ATOM     17  C   UNL     1     -47.316  -4.201 -30.703  0.00  0.00    +0.000 C 
BRANCH  17  19
ATOM     18  C   UNL     1     -44.857  -1.860 -31.685  0.00  0.00    +0.000 A 
ATOM     19  C   UNL     1     -46.114  -3.415 -31.090  0.00  0.00    +0.000 A 
ATOM     20  N   UNL     1     -46.134  -2.087 -31.317  0.00  0.00    +0.000 NA
ATOM     21  N   UNL     1     -44.907  -3.964 -31.316  0.00  0.00    +0.000 NA
ATOM     22  N   UNL     1     -44.109  -2.978 -31.685  0.00  0.00    +0.000 NA
BRANCH  18  24
ATOM     23  C   UNL     1     -43.326  -0.637 -33.178  0.00  0.00    +0.000 C 
ATOM     24  C   UNL     1     -44.324  -0.516 -32.043  0.00  0.00    +0.000 C 
ENDBRANCH  18  24
ENDBRANCH  17  19
ENDBRANCH  15  17
ENDBRANCH   1  14
BRANCH   5  25
ATOM     25  C   UNL     1     -42.825  -7.671 -27.351  0.00  0.00    +0.000 C 
ATOM     26  C   UNL     1     -41.969  -6.517 -26.860  0.00  0.00    +0.000 C 
ATOM     27  C   UNL     1     -42.060  -6.808 -28.340  0.00  0.00    +0.000 C 
ENDBRANCH   5  25
TORSDOF 6
ENDMDL
MODEL 3
REMARK VINA RESULT:      -5.5      2.176      2.900
REMARK  Name = ZINC000615451238 MolPort-044-610-126
REMARK  6 active torsions:
REMARK  status: ('A' for Active; 'I' for Inactive)
REMARK    1  A    between atoms: C_2  and  C_3
REMARK    2  A    between atoms: C_4  and  C_5
REMARK    3  A    between atoms: C_5  and  N_22
REMARK    4  A    between atoms: C_6  and  C_7
REMARK    5  A    between atoms: C_10  and  N_23
REMARK    6  A    between atoms: C_13  and  C_14
REMARK                            x       y       z     vdW  Elec       q    Type
REMARK                         _______ _______ _______ _____ _____    ______ ____
ROOT
ATOM      1  C   UNL     1     -46.130  -6.763 -28.257  0.00  0.00    +0.000 C 
ATOM      2  C   UNL     1     -45.046  -6.054 -27.431  0.00  0.00    +0.000 C 
ATOM      3  C   UNL     1     -43.800  -6.701 -27.881  0.00  0.00    +0.000 C 
ATOM      4  C   UNL     1     -45.436  -7.827 -29.126  0.00  0.00    +0.000 C 
ATOM      5  N   UNL     1     -44.010  -7.690 -28.869  0.00  0.00    +0.000 N 
ATOM      6  O   UNL     1     -42.660  -6.411 -27.429  0.00  0.00    +0.000 OA
ENDROOT
BRANCH   4   7
ATOM      7  C   UNL     1     -45.924  -9.201 -28.779  0.00  0.00    +0.000 A 
ATOM      8  C   UNL     1     -46.268 -10.239 -29.624  0.00  0.00    +0.000 A 
ATOM      9  C   UNL     1     -46.238 -10.234 -31.116  0.00  0.00    +0.000 C 
ATOM     10  C   UNL     1     -47.089 -12.581 -29.340  0.00  0.00    +0.000 C 
ATOM     11  C   UNL     1     -46.118  -9.685 -27.496  0.00  0.00    +0.000 A 
ATOM     12  N   UNL     1     -46.647 -11.280 -28.866  0.00  0.00    +0.000 N 
ATOM     13  N   UNL     1     -46.559 -10.959 -27.586  0.00  0.00    +0.000 NA
ENDBRANCH   4   7
BRANCH   1  14
ATOM     14  C   UNL     1     -46.853  -5.782 -29.118  0.00  0.00    +0.000 C 
ATOM     15  N   UNL     1     -46.649  -5.780 -30.532  0.00  0.00    +0.000 NA
ATOM     16  O   UNL     1     -47.646  -4.959 -28.586  0.00  0.00    +0.000 OA
BRANCH  15  17
ATOM     17  C   UNL     1     -47.347  -4.860 -31.414  0.00  0.00    +0.000 C 
BRANCH  17  19
ATOM     18  C   UNL     1     -45.174  -2.286 -32.484  0.00  0.00    +0.000 A 
ATOM     19  C   UNL     1     -46.502  -3.657 -31.643  0.00  0.00    +0.000 A 
ATOM     20  N   UNL     1     -45.805  -3.442 -32.775  0.00  0.00    +0.000 NA
ATOM     21  N   UNL     1     -46.302  -2.702 -30.718  0.00  0.00    +0.000 NA
ATOM     22  N   UNL     1     -45.467  -1.830 -31.253  0.00  0.00    +0.000 NA
BRANCH  18  24
ATOM     23  C   UNL     1     -43.478  -0.510 -32.688  0.00  0.00    +0.000 C 
ATOM     24  C   UNL     1     -44.259  -1.581 -33.425  0.00  0.00    +0.000 C 
ENDBRANCH  18  24
ENDBRANCH  17  19
ENDBRANCH  15  17
ENDBRANCH   1  14
BRANCH   5  25
ATOM     25  C   UNL     1     -42.964  -8.525 -29.458  0.00  0.00    +0.000 C 
ATOM     26  C   UNL     1     -41.964  -7.655 -30.198  0.00  0.00    +0.000 C 
ATOM     27  C   UNL     1     -43.008  -8.424 -30.973  0.00  0.00    +0.000 C 
ENDBRANCH   5  25
TORSDOF 6
ENDMDL
