MODEL 1
REMARK VINA RESULT:      -6.5      0.000      0.000
REMARK  Name = ZINC000032674352 ZINC32674352 PubChem-39910230
REMARK  6 active torsions:
REMARK  status: ('A' for Active; 'I' for Inactive)
REMARK    1  A    between atoms: C_2  and  O_24
REMARK    2  A    between atoms: C_5  and  C_8
REMARK    3  A    between atoms: C_8  and  C_9
REMARK    4  A    between atoms: C_8  and  N_30
REMARK    5  A    between atoms: C_9  and  N_29
REMARK    6  A    between atoms: C_10  and  C_11
REMARK                            x       y       z     vdW  Elec       q    Type
REMARK                         _______ _______ _______ _____ _____    ______ ____
ROOT
ATOM      1  C   UNL     1     -45.127 -14.427 -25.320  0.00  0.00    +0.000 C 
ENDROOT
BRANCH   1   5
ATOM      2  C   UNL     1     -44.438 -18.587 -24.376  0.00  0.00    +0.000 A 
ATOM      3  C   UNL     1     -45.736 -18.110 -24.621  0.00  0.00    +0.000 A 
ATOM      4  C   UNL     1     -45.946 -16.761 -24.925  0.00  0.00    +0.000 A 
ATOM      5  C   UNL     1     -44.864 -15.877 -24.992  0.00  0.00    +0.000 A 
ATOM      6  C   UNL     1     -43.567 -16.354 -24.746  0.00  0.00    +0.000 A 
ATOM      7  C   UNL     1     -43.358 -17.701 -24.440  0.00  0.00    +0.000 A 
BRANCH   2   9
ATOM      8  C   UNL     1     -43.082 -20.354 -23.299  0.00  0.00    +0.000 C 
ATOM      9  O   UNL     1     -44.194 -19.930 -24.074  0.00  0.00    +0.000 OA
ENDBRANCH   2   9
ENDBRANCH   1   5
BRANCH   1  15
ATOM     10  C   UNL     1     -46.390 -12.873 -26.643  0.00  0.00    +0.000 C 
ATOM     11  C   UNL     1     -46.971 -12.596 -28.031  0.00  0.00    +0.000 C 
ATOM     12  C   UNL     1     -45.457 -13.932 -29.050  0.00  0.00    +0.000 C 
ATOM     13  C   UNL     1     -44.778 -14.293 -27.728  0.00  0.00    +0.000 C 
ATOM     14  O   UNL     1     -45.941 -12.613 -28.990  0.00  0.00    +0.000 OA
ATOM     15  N   UNL     1     -45.753 -14.194 -26.634  0.00  0.00    +0.000 NA
ENDBRANCH   1  15
BRANCH   1  16
ATOM     16  C   UNL     1     -45.874 -13.704 -24.201  0.00  0.00    +0.000 C 
BRANCH  16  19
ATOM     17  C   UNL     1     -45.820 -13.929 -21.675  0.00  0.00    +0.000 C 
ATOM     18  O   UNL     1     -47.069 -13.772 -21.596  0.00  0.00    +0.000 OA
ATOM     19  N   UNL     1     -45.156 -13.841 -22.941  0.00  0.00    +0.000 NA
BRANCH  17  20
ATOM     20  C   UNL     1     -45.033 -14.179 -20.428  0.00  0.00    +0.000 C 
ATOM     21  C   UNL     1     -44.211 -15.472 -20.538  0.00  0.00    +0.000 C 
ATOM     22  C   UNL     1     -45.042 -16.697 -20.274  0.00  0.00    +0.000 A 
ATOM     23  C   UNL     1     -44.674 -17.915 -20.855  0.00  0.00    +0.000 A 
ATOM     24  C   UNL     1     -45.413 -19.071 -20.587  0.00  0.00    +0.000 A 
ATOM     25  C   UNL     1     -46.518 -19.014 -19.734  0.00  0.00    +0.000 A 
ATOM     26  C   UNL     1     -46.891 -17.800 -19.148  0.00  0.00    +0.000 A 
ATOM     27  C   UNL     1     -46.156 -16.639 -19.417  0.00  0.00    +0.000 A 
ATOM     28  C   UNL     1     -46.534 -15.340 -18.838  0.00  0.00    +0.000 C 
ATOM     29  O   UNL     1     -47.422 -15.263 -17.948  0.00  0.00    +0.000 OA
ATOM     30  O   UNL     1     -45.885 -14.182 -19.277  0.00  0.00    +0.000 OA
ENDBRANCH  17  20
ENDBRANCH  16  19
ENDBRANCH   1  16
TORSDOF 6
ENDMDL
MODEL 2
REMARK VINA RESULT:      -6.0      2.666      6.725
REMARK  Name = ZINC000032674352 ZINC32674352 PubChem-39910230
REMARK  6 active torsions:
REMARK  status: ('A' for Active; 'I' for Inactive)
REMARK    1  A    between atoms: C_2  and  O_24
REMARK    2  A    between atoms: C_5  and  C_8
REMARK    3  A    between atoms: C_8  and  C_9
REMARK    4  A    between atoms: C_8  and  N_30
REMARK    5  A    between atoms: C_9  and  N_29
REMARK    6  A    between atoms: C_10  and  C_11
REMARK                            x       y       z     vdW  Elec       q    Type
REMARK                         _______ _______ _______ _____ _____    ______ ____
ROOT
ATOM      1  C   UNL     1     -45.901 -15.613 -20.323  0.00  0.00    +0.000 C 
ENDROOT
BRANCH   1   5
ATOM      2  C   UNL     1     -44.093 -19.432 -19.421  0.00  0.00    +0.000 A 
ATOM      3  C   UNL     1     -43.299 -18.303 -19.677  0.00  0.00    +0.000 A 
ATOM      4  C   UNL     1     -43.896 -17.072 -19.968  0.00  0.00    +0.000 A 
ATOM      5  C   UNL     1     -45.289 -16.955 -20.002  0.00  0.00    +0.000 A 
ATOM      6  C   UNL     1     -46.083 -18.085 -19.747  0.00  0.00    +0.000 A 
ATOM      7  C   UNL     1     -45.486 -19.315 -19.459  0.00  0.00    +0.000 A 
BRANCH   2   9
ATOM      8  C   UNL     1     -42.352 -20.816 -18.335  0.00  0.00    +0.000 C 
ATOM      9  O   UNL     1     -43.527 -20.675 -19.122  0.00  0.00    +0.000 OA
ENDBRANCH   2   9
ENDBRANCH   1   5
BRANCH   1  15
ATOM     10  C   UNL     1     -46.633 -13.481 -19.498  0.00  0.00    +0.000 C 
ATOM     11  C   UNL     1     -46.445 -12.436 -18.396  0.00  0.00    +0.000 C 
ATOM     12  C   UNL     1     -45.631 -13.960 -16.937  0.00  0.00    +0.000 C 
ATOM     13  C   UNL     1     -45.769 -15.103 -17.943  0.00  0.00    +0.000 C 
ATOM     14  O   UNL     1     -46.664 -13.025 -17.138  0.00  0.00    +0.000 OA
ATOM     15  N   UNL     1     -45.668 -14.569 -19.308  0.00  0.00    +0.000 NA
ENDBRANCH   1  15
BRANCH   1  16
ATOM     16  C   UNL     1     -45.539 -15.129 -21.725  0.00  0.00    +0.000 C 
BRANCH  16  19
ATOM     17  C   UNL     1     -45.484 -16.042 -24.091  0.00  0.00    +0.000 C 
ATOM     18  O   UNL     1     -44.957 -14.984 -24.529  0.00  0.00    +0.000 OA
ATOM     19  N   UNL     1     -45.857 -16.151 -22.713  0.00  0.00    +0.000 NA
BRANCH  17  20
ATOM     20  C   UNL     1     -45.744 -17.176 -25.033  0.00  0.00    +0.000 C 
ATOM     21  C   UNL     1     -45.669 -18.528 -24.310  0.00  0.00    +0.000 C 
ATOM     22  C   UNL     1     -44.251 -18.994 -24.122  0.00  0.00    +0.000 A 
ATOM     23  C   UNL     1     -43.942 -19.839 -23.051  0.00  0.00    +0.000 A 
ATOM     24  C   UNL     1     -42.638 -20.313 -22.886  0.00  0.00    +0.000 A 
ATOM     25  C   UNL     1     -41.639 -19.947 -23.792  0.00  0.00    +0.000 A 
ATOM     26  C   UNL     1     -41.941 -19.103 -24.865  0.00  0.00    +0.000 A 
ATOM     27  C   UNL     1     -43.246 -18.622 -25.033  0.00  0.00    +0.000 A 
ATOM     28  C   UNL     1     -43.594 -17.714 -26.136  0.00  0.00    +0.000 C 
ATOM     29  O   UNL     1     -42.774 -17.478 -27.062  0.00  0.00    +0.000 OA
ATOM     30  O   UNL     1     -44.859 -17.119 -26.157  0.00  0.00    +0.000 OA
ENDBRANCH  17  20
ENDBRANCH  16  19
ENDBRANCH   1  16
TORSDOF 6
ENDMDL
MODEL 3
REMARK VINA RESULT:      -6.0      9.099     13.077
REMARK  Name = ZINC000032674352 ZINC32674352 PubChem-39910230
REMARK  6 active torsions:
REMARK  status: ('A' for Active; 'I' for Inactive)
REMARK    1  A    between atoms: C_2  and  O_24
REMARK    2  A    between atoms: C_5  and  C_8
REMARK    3  A    between atoms: C_8  and  C_9
REMARK    4  A    between atoms: C_8  and  N_30
REMARK    5  A    between atoms: C_9  and  N_29
REMARK    6  A    between atoms: C_10  and  C_11
REMARK                            x       y       z     vdW  Elec       q    Type
REMARK                         _______ _______ _______ _____ _____    ______ ____
ROOT
ATOM      1  C   UNL     1     -45.304  -4.177 -31.568  0.00  0.00    +0.000 C 
ENDROOT
BRANCH   1   5
ATOM      2  C   UNL     1     -46.115  -5.695 -27.604  0.00  0.00    +0.000 A 
ATOM      3  C   UNL     1     -47.000  -4.801 -28.227  0.00  0.00    +0.000 A 
ATOM      4  C   UNL     1     -46.726  -4.316 -29.510  0.00  0.00    +0.000 A 
ATOM      5  C   UNL     1     -45.571  -4.722 -30.185  0.00  0.00    +0.000 A 
ATOM      6  C   UNL     1     -44.685  -5.616 -29.562  0.00  0.00    +0.000 A 
ATOM      7  C   UNL     1     -44.958  -6.098 -28.279  0.00  0.00    +0.000 A 
BRANCH   2   9
ATOM      8  C   UNL     1     -46.919  -5.414 -25.281  0.00  0.00    +0.000 C 
ATOM      9  O   UNL     1     -46.362  -6.201 -26.325  0.00  0.00    +0.000 OA
ENDBRANCH   2   9
ENDBRANCH   1   5
BRANCH   1  15
ATOM     10  C   UNL     1     -43.165  -3.320 -32.237  0.00  0.00    +0.000 C 
ATOM     11  C   UNL     1     -42.303  -2.060 -32.351  0.00  0.00    +0.000 C 
ATOM     12  C   UNL     1     -44.108  -0.700 -32.432  0.00  0.00    +0.000 C 
ATOM     13  C   UNL     1     -45.086  -1.871 -32.325  0.00  0.00    +0.000 C 
ATOM     14  O   UNL     1     -42.963  -1.102 -33.143  0.00  0.00    +0.000 OA
ATOM     15  N   UNL     1     -44.445  -2.981 -31.607  0.00  0.00    +0.000 NA
ENDBRANCH   1  15
BRANCH   1  16
ATOM     16  C   UNL     1     -44.816  -5.256 -32.533  0.00  0.00    +0.000 C 
BRANCH  16  19
ATOM     17  C   UNL     1     -45.535  -7.654 -32.939  0.00  0.00    +0.000 C 
ATOM     18  O   UNL     1     -44.341  -8.027 -33.095  0.00  0.00    +0.000 OA
ATOM     19  N   UNL     1     -45.842  -6.273 -32.720  0.00  0.00    +0.000 NA
BRANCH  17  20
ATOM     20  C   UNL     1     -46.635  -8.666 -33.014  0.00  0.00    +0.000 C 
ATOM     21  C   UNL     1     -47.662  -8.456 -31.892  0.00  0.00    +0.000 C 
ATOM     22  C   UNL     1     -47.201  -9.037 -30.584  0.00  0.00    +0.000 A 
ATOM     23  C   UNL     1     -47.669  -8.489 -29.386  0.00  0.00    +0.000 A 
ATOM     24  C   UNL     1     -47.281  -9.042 -28.162  0.00  0.00    +0.000 A 
ATOM     25  C   UNL     1     -46.428 -10.148 -28.133  0.00  0.00    +0.000 A 
ATOM     26  C   UNL     1     -45.957 -10.703 -29.327  0.00  0.00    +0.000 A 
ATOM     27  C   UNL     1     -46.339 -10.149 -30.555  0.00  0.00    +0.000 A 
ATOM     28  C   UNL     1     -45.844 -10.691 -31.829  0.00  0.00    +0.000 C 
ATOM     29  O   UNL     1     -45.201 -11.773 -31.865  0.00  0.00    +0.000 OA
ATOM     30  O   UNL     1     -46.106  -9.997 -33.015  0.00  0.00    +0.000 OA
ENDBRANCH  17  20
ENDBRANCH  16  19
ENDBRANCH   1  16
TORSDOF 6
ENDMDL
