MODEL 1
REMARK VINA RESULT:      -6.7      0.000      0.000
REMARK  Name = ZINC000096181797 ZINC96181797 PubChem-97457627
REMARK  2 active torsions:
REMARK  status: ('A' for Active; 'I' for Inactive)
REMARK    1  A    between atoms: C_5  and  C_6
REMARK    2  A    between atoms: C_7  and  C_11
REMARK                            x       y       z     vdW  Elec       q    Type
REMARK                         _______ _______ _______ _____ _____    ______ ____
ROOT
ATOM      1  C   UNL     1     -46.175  -7.132 -25.236  0.00  0.00    +0.000 C 
ATOM      2  C   UNL     1     -47.151  -6.372 -24.315  0.00  0.00    +0.000 C 
ATOM      3  C   UNL     1     -45.539  -7.081 -22.517  0.00  0.00    +0.000 C 
ATOM      4  C   UNL     1     -44.675  -7.705 -23.564  0.00  0.00    +0.000 C 
ATOM      5  C   UNL     1     -47.756  -6.102 -21.883  0.00  0.00    +0.000 C 
ATOM      6  N   UNL     1     -46.800  -6.520 -22.899  0.00  0.00    +0.000 N 
ATOM      7  O   UNL     1     -45.182  -7.110 -21.309  0.00  0.00    +0.000 OA
ATOM      8  O   UNL     1     -44.827  -7.049 -24.805  0.00  0.00    +0.000 OA
ENDROOT
BRANCH   1  13
ATOM      9  C   UNL     1     -45.742 -13.862 -28.447  0.00  0.00    +0.000 C 
ATOM     10  C   UNL     1     -46.109 -12.641 -27.683  0.00  0.00    +0.000 A 
ATOM     11  C   UNL     1     -45.365 -11.478 -27.628  0.00  0.00    +0.000 A 
ATOM     12  C   UNL     1     -46.149 -10.697 -26.800  0.00  0.00    +0.000 A 
ATOM     13  C   UNL     1     -46.617  -8.530 -25.559  0.00  0.00    +0.000 C 
ATOM     14  N   UNL     1     -47.257 -11.352 -26.405  0.00  0.00    +0.000 NA
ATOM     15  N   UNL     1     -45.820  -9.359 -26.413  0.00  0.00    +0.000 NA
ATOM     16  O   UNL     1     -47.196 -12.525 -26.960  0.00  0.00    +0.000 OA
ATOM     17  O   UNL     1     -47.710  -8.949 -25.093  0.00  0.00    +0.000 OA
ENDBRANCH   1  13
BRANCH   2  18
ATOM     18  C   UNL     1     -47.215  -4.924 -24.698  0.00  0.00    +0.000 A 
ATOM     19  C   UNL     1     -47.329  -4.581 -26.050  0.00  0.00    +0.000 A 
ATOM     20  C   UNL     1     -47.398  -3.237 -26.430  0.00  0.00    +0.000 A 
ATOM     21  C   UNL     1     -47.355  -2.232 -25.460  0.00  0.00    +0.000 A 
ATOM     22  C   UNL     1     -47.244  -2.569 -24.108  0.00  0.00    +0.000 A 
ATOM     23  C   UNL     1     -47.175  -3.913 -23.727  0.00  0.00    +0.000 A 
ATOM     24  F   UNL     1     -47.422  -0.931 -25.830  0.00  0.00    +0.000 F 
ENDBRANCH   2  18
TORSDOF 2
ENDMDL
MODEL 2
REMARK VINA RESULT:      -6.5      6.636      8.304
REMARK  Name = ZINC000096181797 ZINC96181797 PubChem-97457627
REMARK  2 active torsions:
REMARK  status: ('A' for Active; 'I' for Inactive)
REMARK    1  A    between atoms: C_5  and  C_6
REMARK    2  A    between atoms: C_7  and  C_11
REMARK                            x       y       z     vdW  Elec       q    Type
REMARK                         _______ _______ _______ _____ _____    ______ ____
ROOT
ATOM      1  C   UNL     1     -45.663  -3.588 -30.958  0.00  0.00    +0.000 C 
ATOM      2  C   UNL     1     -44.558  -4.043 -31.932  0.00  0.00    +0.000 C 
ATOM      3  C   UNL     1     -46.512  -4.655 -33.396  0.00  0.00    +0.000 C 
ATOM      4  C   UNL     1     -47.435  -4.098 -32.361  0.00  0.00    +0.000 C 
ATOM      5  C   UNL     1     -44.210  -5.438 -34.003  0.00  0.00    +0.000 C 
ATOM      6  N   UNL     1     -45.107  -4.709 -33.117  0.00  0.00    +0.000 N 
ATOM      7  O   UNL     1     -46.979  -5.127 -34.465  0.00  0.00    +0.000 OA
ATOM      8  O   UNL     1     -46.808  -3.075 -31.618  0.00  0.00    +0.000 OA
ENDROOT
BRANCH   1  13
ATOM      9  C   UNL     1     -45.431 -10.242 -27.569  0.00  0.00    +0.000 C 
ATOM     10  C   UNL     1     -45.676  -8.838 -27.993  0.00  0.00    +0.000 A 
ATOM     11  C   UNL     1     -45.135  -8.234 -29.112  0.00  0.00    +0.000 A 
ATOM     12  C   UNL     1     -45.681  -6.967 -29.024  0.00  0.00    +0.000 A 
ATOM     13  C   UNL     1     -45.986  -4.601 -29.897  0.00  0.00    +0.000 C 
ATOM     14  N   UNL     1     -46.473  -6.844 -27.942  0.00  0.00    +0.000 NA
ATOM     15  N   UNL     1     -45.431  -5.920 -29.967  0.00  0.00    +0.000 NA
ATOM     16  O   UNL     1     -46.444  -7.997 -27.345  0.00  0.00    +0.000 OA
ATOM     17  O   UNL     1     -46.774  -4.282 -28.967  0.00  0.00    +0.000 OA
ENDBRANCH   1  13
BRANCH   2  18
ATOM     18  C   UNL     1     -43.695  -2.882 -32.326  0.00  0.00    +0.000 A 
ATOM     19  C   UNL     1     -42.303  -3.019 -32.276  0.00  0.00    +0.000 A 
ATOM     20  C   UNL     1     -41.479  -1.952 -32.647  0.00  0.00    +0.000 A 
ATOM     21  C   UNL     1     -42.043  -0.746 -33.071  0.00  0.00    +0.000 A 
ATOM     22  C   UNL     1     -43.433  -0.605 -33.125  0.00  0.00    +0.000 A 
ATOM     23  C   UNL     1     -44.258  -1.671 -32.755  0.00  0.00    +0.000 A 
ATOM     24  F   UNL     1     -41.243   0.287 -33.429  0.00  0.00    +0.000 F 
ENDBRANCH   2  18
TORSDOF 2
ENDMDL
MODEL 3
REMARK VINA RESULT:      -6.4      7.744     11.727
REMARK  Name = ZINC000096181797 ZINC96181797 PubChem-97457627
REMARK  2 active torsions:
REMARK  status: ('A' for Active; 'I' for Inactive)
REMARK    1  A    between atoms: C_5  and  C_6
REMARK    2  A    between atoms: C_7  and  C_11
REMARK                            x       y       z     vdW  Elec       q    Type
REMARK                         _______ _______ _______ _____ _____    ______ ____
ROOT
ATOM      1  C   UNL     1     -44.419 -16.452 -23.370  0.00  0.00    +0.000 C 
ATOM      2  C   UNL     1     -44.800 -17.946 -23.316  0.00  0.00    +0.000 C 
ATOM      3  C   UNL     1     -42.753 -18.214 -24.756  0.00  0.00    +0.000 C 
ATOM      4  C   UNL     1     -42.501 -16.746 -24.637  0.00  0.00    +0.000 C 
ATOM      5  C   UNL     1     -44.328 -20.140 -24.464  0.00  0.00    +0.000 C 
ATOM      6  N   UNL     1     -43.945 -18.764 -24.182  0.00  0.00    +0.000 N 
ATOM      7  O   UNL     1     -41.955 -18.937 -25.408  0.00  0.00    +0.000 OA
ATOM      8  O   UNL     1     -43.019 -16.238 -23.426  0.00  0.00    +0.000 OA
ENDROOT
BRANCH   1  13
ATOM      9  C   UNL     1     -46.847 -10.323 -26.883  0.00  0.00    +0.000 C 
ATOM     10  C   UNL     1     -46.552 -11.700 -26.405  0.00  0.00    +0.000 A 
ATOM     11  C   UNL     1     -45.711 -12.019 -25.355  0.00  0.00    +0.000 A 
ATOM     12  C   UNL     1     -45.804 -13.398 -25.348  0.00  0.00    +0.000 A 
ATOM     13  C   UNL     1     -45.187 -15.672 -24.398  0.00  0.00    +0.000 C 
ATOM     14  N   UNL     1     -46.629 -13.844 -26.313  0.00  0.00    +0.000 NA
ATOM     15  N   UNL     1     -45.106 -14.242 -24.427  0.00  0.00    +0.000 NA
ATOM     16  O   UNL     1     -47.061 -12.786 -26.931  0.00  0.00    +0.000 OA
ATOM     17  O   UNL     1     -45.925 -16.292 -25.211  0.00  0.00    +0.000 OA
ENDBRANCH   1  13
BRANCH   2  18
ATOM     18  C   UNL     1     -44.761 -18.447 -21.904  0.00  0.00    +0.000 A 
ATOM     19  C   UNL     1     -45.958 -18.564 -21.188  0.00  0.00    +0.000 A 
ATOM     20  C   UNL     1     -45.946 -19.036 -19.872  0.00  0.00    +0.000 A 
ATOM     21  C   UNL     1     -44.738 -19.395 -19.268  0.00  0.00    +0.000 A 
ATOM     22  C   UNL     1     -43.540 -19.283 -19.979  0.00  0.00    +0.000 A 
ATOM     23  C   UNL     1     -43.550 -18.810 -21.295  0.00  0.00    +0.000 A 
ATOM     24  F   UNL     1     -44.729 -19.852 -17.994  0.00  0.00    +0.000 F 
ENDBRANCH   2  18
TORSDOF 2
ENDMDL
