MODEL 1
REMARK VINA RESULT:      -5.7      0.000      0.000
REMARK  Name = ZINC000010299713 PubChem-124341967
REMARK  9 active torsions:
REMARK  status: ('A' for Active; 'I' for Inactive)
REMARK    1  A    between atoms: C_2  and  C_3
REMARK    2  A    between atoms: C_2  and  O_21
REMARK    3  A    between atoms: C_3  and  N_26
REMARK    4  A    between atoms: C_4  and  C_5
REMARK    5  A    between atoms: C_5  and  N_27
REMARK    6  A    between atoms: C_6  and  N_27
REMARK    7  A    between atoms: C_13  and  S_29
REMARK    8  A    between atoms: C_19  and  O_25
REMARK    9  A    between atoms: N_27  and  S_29
REMARK                            x       y       z     vdW  Elec       q    Type
REMARK                         _______ _______ _______ _____ _____    ______ ____
ROOT
ATOM      1  N   UNL     1     -43.963 -18.520 -23.730  0.00  0.00    +0.000 N 
ENDROOT
BRANCH   1   2
ATOM      2  C   UNL     1     -44.586 -17.953 -22.558  0.00  0.00    +0.000 A 
ATOM      3  C   UNL     1     -44.436 -16.592 -22.252  0.00  0.00    +0.000 A 
ATOM      4  C   UNL     1     -45.044 -16.045 -21.120  0.00  0.00    +0.000 A 
ATOM      5  C   UNL     1     -45.812 -16.851 -20.275  0.00  0.00    +0.000 A 
ATOM      6  C   UNL     1     -46.446 -16.236 -19.076  0.00  0.00    +0.000 C 
ATOM      7  C   UNL     1     -45.969 -18.216 -20.568  0.00  0.00    +0.000 A 
ATOM      8  C   UNL     1     -45.358 -18.756 -21.703  0.00  0.00    +0.000 A 
ATOM      9 CL   UNL     1     -46.920 -19.275 -19.540  0.00  0.00    +0.000 Cl
ENDBRANCH   1   2
BRANCH   1  12
ATOM     10  O   UNL     1     -45.512 -20.027 -25.255  0.00  0.00    +0.000 OA
ATOM     11  O   UNL     1     -45.874 -17.610 -25.344  0.00  0.00    +0.000 OA
ATOM     12  S   UNL     1     -44.832 -18.687 -25.228  0.00  0.00    +0.000 S 
BRANCH  12  13
ATOM     13  C   UNL     1     -43.718 -18.539 -26.585  0.00  0.00    +0.000 A 
ATOM     14  C   UNL     1     -43.384 -19.681 -27.321  0.00  0.00    +0.000 A 
ATOM     15  C   UNL     1     -42.493 -19.595 -28.393  0.00  0.00    +0.000 A 
ATOM     16  C   UNL     1     -42.142 -20.812 -29.168  0.00  0.00    +0.000 C 
ATOM     17  C   UNL     1     -41.930 -18.363 -28.734  0.00  0.00    +0.000 A 
ATOM     18  C   UNL     1     -42.259 -17.219 -28.004  0.00  0.00    +0.000 A 
ATOM     19  C   UNL     1     -43.155 -17.296 -26.925  0.00  0.00    +0.000 A 
BRANCH  19  21
ATOM     20  C   UNL     1     -42.569 -15.481 -25.345  0.00  0.00    +0.000 C 
ATOM     21  O   UNL     1     -43.493 -16.155 -26.187  0.00  0.00    +0.000 OA
ENDBRANCH  19  21
ENDBRANCH  12  13
ENDBRANCH   1  12
BRANCH   1  22
ATOM     22  C   UNL     1     -42.563 -18.930 -23.698  0.00  0.00    +0.000 C 
BRANCH  22  23
ATOM     23  C   UNL     1     -42.396 -20.116 -22.811  0.00  0.00    +0.000 C 
ATOM     24  O   UNL     1     -42.942 -21.208 -23.122  0.00  0.00    +0.000 OA
ATOM     25  N   UNL     1     -41.647 -19.995 -21.603  0.00  0.00    +0.000 NA
BRANCH  25  26
ATOM     26  C   UNL     1     -41.471 -21.112 -20.690  0.00  0.00    +0.000 C 
BRANCH  26  27
ATOM     27  C   UNL     1     -42.054 -20.763 -19.333  0.00  0.00    +0.000 C 
BRANCH  27  29
ATOM     28  C   UNL     1     -41.128 -21.531 -17.485  0.00  0.00    +0.000 C 
ATOM     29  O   UNL     1     -42.018 -21.880 -18.499  0.00  0.00    +0.000 OA
ENDBRANCH  27  29
ENDBRANCH  26  27
ENDBRANCH  25  26
ENDBRANCH  22  23
ENDBRANCH   1  22
TORSDOF 9
ENDMDL
MODEL 2
REMARK VINA RESULT:      -5.7     12.009     14.628
REMARK  Name = ZINC000010299713 PubChem-124341967
REMARK  9 active torsions:
REMARK  status: ('A' for Active; 'I' for Inactive)
REMARK    1  A    between atoms: C_2  and  C_3
REMARK    2  A    between atoms: C_2  and  O_21
REMARK    3  A    between atoms: C_3  and  N_26
REMARK    4  A    between atoms: C_4  and  C_5
REMARK    5  A    between atoms: C_5  and  N_27
REMARK    6  A    between atoms: C_6  and  N_27
REMARK    7  A    between atoms: C_13  and  S_29
REMARK    8  A    between atoms: C_19  and  O_25
REMARK    9  A    between atoms: N_27  and  S_29
REMARK                            x       y       z     vdW  Elec       q    Type
REMARK                         _______ _______ _______ _____ _____    ______ ____
ROOT
ATOM      1  N   UNL     1     -46.424  -6.215 -29.711  0.00  0.00    +0.000 N 
ENDROOT
BRANCH   1   2
ATOM      2  C   UNL     1     -46.673  -5.592 -28.434  0.00  0.00    +0.000 A 
ATOM      3  C   UNL     1     -47.381  -4.383 -28.351  0.00  0.00    +0.000 A 
ATOM      4  C   UNL     1     -47.626  -3.784 -27.113  0.00  0.00    +0.000 A 
ATOM      5  C   UNL     1     -47.165  -4.384 -25.938  0.00  0.00    +0.000 A 
ATOM      6  C   UNL     1     -47.443  -3.718 -24.634  0.00  0.00    +0.000 C 
ATOM      7  C   UNL     1     -46.454  -5.594 -26.006  0.00  0.00    +0.000 A 
ATOM      8  C   UNL     1     -46.214  -6.187 -27.249  0.00  0.00    +0.000 A 
ATOM      9 CL   UNL     1     -45.851  -6.390 -24.562  0.00  0.00    +0.000 Cl
ENDBRANCH   1   2
BRANCH   1  12
ATOM     10  O   UNL     1     -43.867  -5.540 -29.674  0.00  0.00    +0.000 OA
ATOM     11  O   UNL     1     -44.590  -7.068 -31.441  0.00  0.00    +0.000 OA
ATOM     12  S   UNL     1     -44.984  -5.869 -30.624  0.00  0.00    +0.000 S 
BRANCH  12  13
ATOM     13  C   UNL     1     -45.277  -4.517 -31.714  0.00  0.00    +0.000 A 
ATOM     14  C   UNL     1     -44.792  -3.249 -31.376  0.00  0.00    +0.000 A 
ATOM     15  C   UNL     1     -45.023  -2.157 -32.216  0.00  0.00    +0.000 A 
ATOM     16  C   UNL     1     -44.505  -0.814 -31.847  0.00  0.00    +0.000 C 
ATOM     17  C   UNL     1     -45.741  -2.328 -33.400  0.00  0.00    +0.000 A 
ATOM     18  C   UNL     1     -46.227  -3.591 -33.746  0.00  0.00    +0.000 A 
ATOM     19  C   UNL     1     -46.001  -4.695 -32.908  0.00  0.00    +0.000 A 
BRANCH  19  21
ATOM     20  C   UNL     1     -46.206  -6.591 -34.490  0.00  0.00    +0.000 C 
ATOM     21  O   UNL     1     -46.483  -5.967 -33.244  0.00  0.00    +0.000 OA
ENDBRANCH  19  21
ENDBRANCH  12  13
ENDBRANCH   1  12
BRANCH   1  22
ATOM     22  C   UNL     1     -47.361  -7.194 -30.252  0.00  0.00    +0.000 C 
BRANCH  22  23
ATOM     23  C   UNL     1     -46.915  -8.574 -29.911  0.00  0.00    +0.000 C 
ATOM     24  O   UNL     1     -46.455  -9.322 -30.816  0.00  0.00    +0.000 OA
ATOM     25  N   UNL     1     -47.043  -9.048 -28.572  0.00  0.00    +0.000 NA
BRANCH  25  26
ATOM     26  C   UNL     1     -46.646 -10.392 -28.187  0.00  0.00    +0.000 C 
BRANCH  26  27
ATOM     27  C   UNL     1     -47.005 -10.638 -26.733  0.00  0.00    +0.000 C 
BRANCH  27  29
ATOM     28  C   UNL     1     -46.263 -12.662 -27.201  0.00  0.00    +0.000 C 
ATOM     29  O   UNL     1     -47.288 -11.990 -26.536  0.00  0.00    +0.000 OA
ENDBRANCH  27  29
ENDBRANCH  26  27
ENDBRANCH  25  26
ENDBRANCH  22  23
ENDBRANCH   1  22
TORSDOF 9
ENDMDL
MODEL 3
REMARK VINA RESULT:      -5.5     12.233     15.332
REMARK  Name = ZINC000010299713 PubChem-124341967
REMARK  9 active torsions:
REMARK  status: ('A' for Active; 'I' for Inactive)
REMARK    1  A    between atoms: C_2  and  C_3
REMARK    2  A    between atoms: C_2  and  O_21
REMARK    3  A    between atoms: C_3  and  N_26
REMARK    4  A    between atoms: C_4  and  C_5
REMARK    5  A    between atoms: C_5  and  N_27
REMARK    6  A    between atoms: C_6  and  N_27
REMARK    7  A    between atoms: C_13  and  S_29
REMARK    8  A    between atoms: C_19  and  O_25
REMARK    9  A    between atoms: N_27  and  S_29
REMARK                            x       y       z     vdW  Elec       q    Type
REMARK                         _______ _______ _______ _____ _____    ______ ____
ROOT
ATOM      1  N   UNL     1     -46.632  -5.443 -28.613  0.00  0.00    +0.000 N 
ENDROOT
BRANCH   1   2
ATOM      2  C   UNL     1     -46.833  -4.901 -27.291  0.00  0.00    +0.000 A 
ATOM      3  C   UNL     1     -46.717  -5.717 -26.155  0.00  0.00    +0.000 A 
ATOM      4  C   UNL     1     -46.907  -5.190 -24.876  0.00  0.00    +0.000 A 
ATOM      5  C   UNL     1     -47.217  -3.837 -24.712  0.00  0.00    +0.000 A 
ATOM      6  C   UNL     1     -47.414  -3.307 -23.334  0.00  0.00    +0.000 C 
ATOM      7  C   UNL     1     -47.339  -3.008 -25.840  0.00  0.00    +0.000 A 
ATOM      8  C   UNL     1     -47.146  -3.544 -27.117  0.00  0.00    +0.000 A 
ATOM      9 CL   UNL     1     -47.729  -1.303 -25.693  0.00  0.00    +0.000 Cl
ENDBRANCH   1   2
BRANCH   1  12
ATOM     10  O   UNL     1     -44.266  -5.538 -29.792  0.00  0.00    +0.000 OA
ATOM     11  O   UNL     1     -44.542  -6.843 -27.742  0.00  0.00    +0.000 OA
ATOM     12  S   UNL     1     -45.223  -6.387 -29.003  0.00  0.00    +0.000 S 
BRANCH  12  13
ATOM     13  C   UNL     1     -45.693  -7.807 -29.933  0.00  0.00    +0.000 A 
ATOM     14  C   UNL     1     -45.126  -8.015 -31.195  0.00  0.00    +0.000 A 
ATOM     15  C   UNL     1     -45.491  -9.125 -31.959  0.00  0.00    +0.000 A 
ATOM     16  C   UNL     1     -44.884  -9.337 -33.299  0.00  0.00    +0.000 C 
ATOM     17  C   UNL     1     -46.427 -10.034 -31.465  0.00  0.00    +0.000 A 
ATOM     18  C   UNL     1     -46.998  -9.834 -30.206  0.00  0.00    +0.000 A 
ATOM     19  C   UNL     1     -46.637  -8.721 -29.429  0.00  0.00    +0.000 A 
BRANCH  19  21
ATOM     20  C   UNL     1     -47.071  -9.439 -27.099  0.00  0.00    +0.000 C 
ATOM     21  O   UNL     1     -47.201  -8.510 -28.165  0.00  0.00    +0.000 OA
ENDBRANCH  19  21
ENDBRANCH  12  13
ENDBRANCH   1  12
BRANCH   1  22
ATOM     22  C   UNL     1     -47.636  -5.246 -29.654  0.00  0.00    +0.000 C 
BRANCH  22  23
ATOM     23  C   UNL     1     -47.041  -4.516 -30.809  0.00  0.00    +0.000 C 
ATOM     24  O   UNL     1     -46.975  -5.079 -31.935  0.00  0.00    +0.000 OA
ATOM     25  N   UNL     1     -46.523  -3.200 -30.623  0.00  0.00    +0.000 NA
BRANCH  25  26
ATOM     26  C   UNL     1     -45.911  -2.451 -31.707  0.00  0.00    +0.000 C 
BRANCH  26  27
ATOM     27  C   UNL     1     -44.401  -2.484 -31.567  0.00  0.00    +0.000 C 
BRANCH  27  29
ATOM     28  C   UNL     1     -42.516  -3.489 -32.118  0.00  0.00    +0.000 C 
ATOM     29  O   UNL     1     -43.858  -3.386 -32.481  0.00  0.00    +0.000 OA
ENDBRANCH  27  29
ENDBRANCH  26  27
ENDBRANCH  25  26
ENDBRANCH  22  23
ENDBRANCH   1  22
TORSDOF 9
ENDMDL
