MODEL 1
REMARK VINA RESULT:      -5.9      0.000      0.000
REMARK  Name = ZINC000253420118 PubChem-124883398
REMARK  7 active torsions:
REMARK  status: ('A' for Active; 'I' for Inactive)
REMARK    1  A    between atoms: C_2  and  C_16
REMARK    2  A    between atoms: C_2  and  N_22
REMARK    3  A    between atoms: C_3  and  C_4
REMARK    4  A    between atoms: C_4  and  C_5
REMARK    5  A    between atoms: C_5  and  C_6
REMARK    6  A    between atoms: C_5  and  N_23
REMARK    7  A    between atoms: C_16  and  N_24
REMARK                            x       y       z     vdW  Elec       q    Type
REMARK                         _______ _______ _______ _____ _____    ______ ____
ROOT
ATOM      1  C   UNL     1     -45.214 -16.170 -23.904  0.00  0.00    +0.000 C 
ENDROOT
BRANCH   1   2
ATOM      2  C   UNL     1     -45.603 -15.991 -22.456  0.00  0.00    +0.000 A 
ATOM      3  C   UNL     1     -46.155 -14.789 -21.985  0.00  0.00    +0.000 A 
ATOM      4  C   UNL     1     -46.494 -14.653 -20.637  0.00  0.00    +0.000 A 
ATOM      5  C   UNL     1     -46.279 -15.708 -19.746  0.00  0.00    +0.000 A 
ATOM      6  C   UNL     1     -45.717 -16.910 -20.210  0.00  0.00    +0.000 A 
ATOM      7  C   UNL     1     -45.379 -17.042 -21.561  0.00  0.00    +0.000 A 
ATOM      8 CL   UNL     1     -46.724 -15.492 -18.061  0.00  0.00    +0.000 Cl
ATOM      9 CL   UNL     1     -45.426 -18.266 -19.131  0.00  0.00    +0.000 Cl
ENDBRANCH   1   2
BRANCH   1  14
ATOM     10  C   UNL     1     -43.694 -17.549 -25.228  0.00  0.00    +0.000 C 
ATOM     11  C   UNL     1     -43.403 -18.987 -25.663  0.00  0.00    +0.000 C 
ATOM     12  C   UNL     1     -45.532 -19.650 -25.287  0.00  0.00    +0.000 C 
ATOM     13  C   UNL     1     -45.965 -18.256 -24.827  0.00  0.00    +0.000 C 
ATOM     14  N   UNL     1     -44.812 -17.541 -24.271  0.00  0.00    +0.000 NA
ATOM     15  O   UNL     1     -44.543 -19.533 -26.282  0.00  0.00    +0.000 OA
ENDBRANCH   1  14
BRANCH   1  16
ATOM     16  C   UNL     1     -46.274 -15.609 -24.852  0.00  0.00    +0.000 C 
BRANCH  16  17
ATOM     17  C   UNL     1     -45.782 -14.368 -25.513  0.00  0.00    +0.000 C 
ATOM     18  N   UNL     1     -44.455 -14.330 -26.042  0.00  0.00    +0.000 NA
ATOM     19  O   UNL     1     -46.533 -13.359 -25.585  0.00  0.00    +0.000 OA
BRANCH  18  21
ATOM     20  C   UNL     1     -42.478 -12.917 -26.060  0.00  0.00    +0.000 C 
ATOM     21  C   UNL     1     -43.873 -13.132 -26.631  0.00  0.00    +0.000 C 
BRANCH  21  22
ATOM     22  C   UNL     1     -43.806 -13.278 -28.155  0.00  0.00    +0.000 C 
ATOM     23  C   UNL     1     -43.855 -14.752 -28.577  0.00  0.00    +0.000 C 
BRANCH  22  28
ATOM     24  C   UNL     1     -46.011 -13.308 -29.082  0.00  0.00    +0.000 C 
ATOM     25  C   UNL     1     -47.214 -12.463 -29.530  0.00  0.00    +0.000 C 
ATOM     26  C   UNL     1     -46.426 -10.567 -28.599  0.00  0.00    +0.000 C 
ATOM     27  C   UNL     1     -45.207 -11.291 -28.004  0.00  0.00    +0.000 C 
ATOM     28  N   UNL     1     -44.839 -12.464 -28.816  0.00  0.00    +0.000 NA
ATOM     29  O   UNL     1     -46.814 -11.147 -29.822  0.00  0.00    +0.000 OA
ENDBRANCH  22  28
ENDBRANCH  21  22
ENDBRANCH  18  21
ENDBRANCH  16  17
ENDBRANCH   1  16
TORSDOF 7
ENDMDL
MODEL 2
REMARK VINA RESULT:      -5.8     10.185     13.853
REMARK  Name = ZINC000253420118 PubChem-124883398
REMARK  7 active torsions:
REMARK  status: ('A' for Active; 'I' for Inactive)
REMARK    1  A    between atoms: C_2  and  C_16
REMARK    2  A    between atoms: C_2  and  N_22
REMARK    3  A    between atoms: C_3  and  C_4
REMARK    4  A    between atoms: C_4  and  C_5
REMARK    5  A    between atoms: C_5  and  C_6
REMARK    6  A    between atoms: C_5  and  N_23
REMARK    7  A    between atoms: C_16  and  N_24
REMARK                            x       y       z     vdW  Elec       q    Type
REMARK                         _______ _______ _______ _____ _____    ______ ____
ROOT
ATOM      1  C   UNL     1     -45.206  -4.027 -31.961  0.00  0.00    +0.000 C 
ENDROOT
BRANCH   1   2
ATOM      2  C   UNL     1     -44.128  -2.990 -32.166  0.00  0.00    +0.000 A 
ATOM      3  C   UNL     1     -44.396  -1.617 -32.046  0.00  0.00    +0.000 A 
ATOM      4  C   UNL     1     -43.379  -0.682 -32.253  0.00  0.00    +0.000 A 
ATOM      5  C   UNL     1     -42.089  -1.106 -32.587  0.00  0.00    +0.000 A 
ATOM      6  C   UNL     1     -41.818  -2.480 -32.718  0.00  0.00    +0.000 A 
ATOM      7  C   UNL     1     -42.840  -3.411 -32.510  0.00  0.00    +0.000 A 
ATOM      8 CL   UNL     1     -40.842   0.104 -32.833  0.00  0.00    +0.000 Cl
ATOM      9 CL   UNL     1     -40.215  -3.064 -33.136  0.00  0.00    +0.000 Cl
ENDBRANCH   1   2
BRANCH   1  14
ATOM     10  C   UNL     1     -45.164  -5.504 -30.016  0.00  0.00    +0.000 C 
ATOM     11  C   UNL     1     -45.729  -5.696 -28.607  0.00  0.00    +0.000 C 
ATOM     12  C   UNL     1     -47.529  -4.394 -29.030  0.00  0.00    +0.000 C 
ATOM     13  C   UNL     1     -47.084  -4.115 -30.468  0.00  0.00    +0.000 C 
ATOM     14  N   UNL     1     -45.624  -4.215 -30.559  0.00  0.00    +0.000 NA
ATOM     15  O   UNL     1     -47.136  -5.694 -28.657  0.00  0.00    +0.000 OA
ENDBRANCH   1  14
BRANCH   1  16
ATOM     16  C   UNL     1     -46.398  -3.801 -32.891  0.00  0.00    +0.000 C 
BRANCH  16  17
ATOM     17  C   UNL     1     -46.463  -4.868 -33.928  0.00  0.00    +0.000 C 
ATOM     18  N   UNL     1     -45.560  -5.973 -33.861  0.00  0.00    +0.000 NA
ATOM     19  O   UNL     1     -47.302  -4.778 -34.865  0.00  0.00    +0.000 OA
BRANCH  18  21
ATOM     20  C   UNL     1     -44.080  -7.532 -34.995  0.00  0.00    +0.000 C 
ATOM     21  C   UNL     1     -45.507  -7.015 -34.879  0.00  0.00    +0.000 C 
BRANCH  21  22
ATOM     22  C   UNL     1     -46.457  -8.158 -34.506  0.00  0.00    +0.000 C 
ATOM     23  C   UNL     1     -46.503  -9.226 -35.605  0.00  0.00    +0.000 C 
BRANCH  22  28
ATOM     24  C   UNL     1     -47.233  -8.430 -32.259  0.00  0.00    +0.000 C 
ATOM     25  C   UNL     1     -47.070  -9.205 -30.942  0.00  0.00    +0.000 C 
ATOM     26  C   UNL     1     -45.727 -10.772 -31.851  0.00  0.00    +0.000 C 
ATOM     27  C   UNL     1     -45.863 -10.164 -33.257  0.00  0.00    +0.000 C 
ATOM     28  N   UNL     1     -46.128  -8.717 -33.184  0.00  0.00    +0.000 NA
ATOM     29  O   UNL     1     -45.787  -9.776 -30.858  0.00  0.00    +0.000 OA
ENDBRANCH  22  28
ENDBRANCH  21  22
ENDBRANCH  18  21
ENDBRANCH  16  17
ENDBRANCH   1  16
TORSDOF 7
ENDMDL
MODEL 3
REMARK VINA RESULT:      -5.8      0.769      1.437
REMARK  Name = ZINC000253420118 PubChem-124883398
REMARK  7 active torsions:
REMARK  status: ('A' for Active; 'I' for Inactive)
REMARK    1  A    between atoms: C_2  and  C_16
REMARK    2  A    between atoms: C_2  and  N_22
REMARK    3  A    between atoms: C_3  and  C_4
REMARK    4  A    between atoms: C_4  and  C_5
REMARK    5  A    between atoms: C_5  and  C_6
REMARK    6  A    between atoms: C_5  and  N_23
REMARK    7  A    between atoms: C_16  and  N_24
REMARK                            x       y       z     vdW  Elec       q    Type
REMARK                         _______ _______ _______ _____ _____    ______ ____
ROOT
ATOM      1  C   UNL     1     -45.228 -16.274 -23.560  0.00  0.00    +0.000 C 
ENDROOT
BRANCH   1   2
ATOM      2  C   UNL     1     -45.662 -16.054 -22.131  0.00  0.00    +0.000 A 
ATOM      3  C   UNL     1     -45.527 -17.056 -21.157  0.00  0.00    +0.000 A 
ATOM      4  C   UNL     1     -45.948 -16.823 -19.847  0.00  0.00    +0.000 A 
ATOM      5  C   UNL     1     -46.515 -15.594 -19.496  0.00  0.00    +0.000 A 
ATOM      6  C   UNL     1     -46.662 -14.590 -20.470  0.00  0.00    +0.000 A 
ATOM      7  C   UNL     1     -46.239 -14.829 -21.781  0.00  0.00    +0.000 A 
ATOM      8 CL   UNL     1     -47.027 -15.345 -17.835  0.00  0.00    +0.000 Cl
ATOM      9 CL   UNL     1     -47.368 -13.030 -20.081  0.00  0.00    +0.000 Cl
ENDBRANCH   1   2
BRANCH   1  14
ATOM     10  C   UNL     1     -43.474 -17.749 -24.406  0.00  0.00    +0.000 C 
ATOM     11  C   UNL     1     -43.180 -19.188 -24.836  0.00  0.00    +0.000 C 
ATOM     12  C   UNL     1     -45.358 -19.627 -25.253  0.00  0.00    +0.000 C 
ATOM     13  C   UNL     1     -45.798 -18.217 -24.851  0.00  0.00    +0.000 C 
ATOM     14  N   UNL     1     -44.847 -17.663 -23.883  0.00  0.00    +0.000 NA
ATOM     15  O   UNL     1     -44.082 -19.574 -25.845  0.00  0.00    +0.000 OA
ENDBRANCH   1  14
BRANCH   1  16
ATOM     16  C   UNL     1     -46.241 -15.710 -24.556  0.00  0.00    +0.000 C 
BRANCH  16  17
ATOM     17  C   UNL     1     -45.713 -14.472 -25.195  0.00  0.00    +0.000 C 
ATOM     18  N   UNL     1     -44.491 -14.525 -25.933  0.00  0.00    +0.000 NA
ATOM     19  O   UNL     1     -46.340 -13.386 -25.064  0.00  0.00    +0.000 OA
BRANCH  18  21
ATOM     20  C   UNL     1     -42.484 -13.155 -25.918  0.00  0.00    +0.000 C 
ATOM     21  C   UNL     1     -43.869 -13.345 -26.519  0.00  0.00    +0.000 C 
BRANCH  21  22
ATOM     22  C   UNL     1     -43.770 -13.507 -28.040  0.00  0.00    +0.000 C 
ATOM     23  C   UNL     1     -43.839 -14.982 -28.450  0.00  0.00    +0.000 C 
BRANCH  22  28
ATOM     24  C   UNL     1     -46.011 -13.453 -28.876  0.00  0.00    +0.000 C 
ATOM     25  C   UNL     1     -47.171 -12.564 -29.352  0.00  0.00    +0.000 C 
ATOM     26  C   UNL     1     -46.211 -10.658 -28.625  0.00  0.00    +0.000 C 
ATOM     27  C   UNL     1     -45.021 -11.416 -28.014  0.00  0.00    +0.000 C 
ATOM     28  N   UNL     1     -44.772 -12.678 -28.731  0.00  0.00    +0.000 NA
ATOM     29  O   UNL     1     -46.693 -11.310 -29.775  0.00  0.00    +0.000 OA
ENDBRANCH  22  28
ENDBRANCH  21  22
ENDBRANCH  18  21
ENDBRANCH  16  17
ENDBRANCH   1  16
TORSDOF 7
ENDMDL
