MODEL 1
REMARK VINA RESULT:      -5.8      0.000      0.000
REMARK  Name = ZINC000065211338 ZINC65211338 ChemDiv-P103-1195 MolPort-010-919-102 PubChem-53160942
REMARK  7 active torsions:
REMARK  status: ('A' for Active; 'I' for Inactive)
REMARK    1  A    between atoms: C_2  and  C_3
REMARK    2  A    between atoms: C_4  and  C_5
REMARK    3  A    between atoms: C_6  and  S_25
REMARK    4  A    between atoms: C_7  and  C_8
REMARK    5  A    between atoms: C_7  and  S_25
REMARK    6  A    between atoms: C_9  and  C_10
REMARK    7  A    between atoms: C_9  and  N_20
REMARK                            x       y       z     vdW  Elec       q    Type
REMARK                         _______ _______ _______ _____ _____    ______ ____
ROOT
ATOM      1  C   UNL     1     -45.646 -14.231 -25.953  0.00  0.00    +0.000 A 
ATOM      2  C   UNL     1     -44.696 -15.078 -26.581  0.00  0.00    +0.000 A 
ATOM      3  C   UNL     1     -45.185 -14.109 -28.703  0.00  0.00    +0.000 A 
ATOM      4  C   UNL     1     -46.128 -13.261 -28.131  0.00  0.00    +0.000 A 
ATOM      5  C   UNL     1     -46.354 -13.327 -26.758  0.00  0.00    +0.000 A 
ATOM      6  N   UNL     1     -44.500 -14.986 -27.925  0.00  0.00    +0.000 NA
ENDROOT
BRANCH   1   8
ATOM      7  C   UNL     1     -46.085 -13.664 -22.495  0.00  0.00    +0.000 A 
ATOM      8  C   UNL     1     -45.946 -14.237 -24.499  0.00  0.00    +0.000 A 
ATOM      9  N   UNL     1     -45.635 -13.209 -23.678  0.00  0.00    +0.000 NA
ATOM     10  N   UNL     1     -46.548 -15.248 -23.838  0.00  0.00    +0.000 NA
ATOM     11  O   UNL     1     -46.617 -14.854 -22.603  0.00  0.00    +0.000 OA
BRANCH   7  13
ATOM     12  C   UNL     1     -47.138 -13.273 -20.304  0.00  0.00    +0.000 C 
ATOM     13  C   UNL     1     -45.993 -12.895 -21.223  0.00  0.00    +0.000 C 
ENDBRANCH   7  13
ENDBRANCH   1   8
BRANCH   2  14
ATOM     14  S   UNL     1     -43.716 -16.287 -25.687  0.00  0.00    +0.000 S 
BRANCH  14  15
ATOM     15  C   UNL     1     -44.798 -17.655 -26.197  0.00  0.00    +0.000 C 
BRANCH  15  16
ATOM     16  C   UNL     1     -45.176 -18.474 -25.014  0.00  0.00    +0.000 C 
ATOM     17  N   UNL     1     -44.431 -18.359 -23.801  0.00  0.00    +0.000 NA
ATOM     18  O   UNL     1     -46.147 -19.274 -25.097  0.00  0.00    +0.000 OA
BRANCH  17  19
ATOM     19  C   UNL     1     -44.762 -19.137 -22.618  0.00  0.00    +0.000 C 
BRANCH  19  20
ATOM     20  C   UNL     1     -45.026 -18.222 -21.474  0.00  0.00    +0.000 A 
ATOM     21  C   UNL     1     -46.059 -18.496 -20.575  0.00  0.00    +0.000 A 
ATOM     22  C   UNL     1     -46.313 -17.619 -19.520  0.00  0.00    +0.000 A 
ATOM     23  C   UNL     1     -45.526 -16.472 -19.383  0.00  0.00    +0.000 A 
ATOM     24  C   UNL     1     -44.266 -17.062 -21.308  0.00  0.00    +0.000 A 
ATOM     25  N   UNL     1     -44.529 -16.218 -20.273  0.00  0.00    +0.000 NA
ENDBRANCH  19  20
ENDBRANCH  17  19
ENDBRANCH  15  16
ENDBRANCH  14  15
ENDBRANCH   2  14
TORSDOF 7
ENDMDL
MODEL 2
REMARK VINA RESULT:      -5.4      9.915     13.666
REMARK  Name = ZINC000065211338 ZINC65211338 ChemDiv-P103-1195 MolPort-010-919-102 PubChem-53160942
REMARK  7 active torsions:
REMARK  status: ('A' for Active; 'I' for Inactive)
REMARK    1  A    between atoms: C_2  and  C_3
REMARK    2  A    between atoms: C_4  and  C_5
REMARK    3  A    between atoms: C_6  and  S_25
REMARK    4  A    between atoms: C_7  and  C_8
REMARK    5  A    between atoms: C_7  and  S_25
REMARK    6  A    between atoms: C_9  and  C_10
REMARK    7  A    between atoms: C_9  and  N_20
REMARK                            x       y       z     vdW  Elec       q    Type
REMARK                         _______ _______ _______ _____ _____    ______ ____
ROOT
ATOM      1  C   UNL     1     -45.634  -3.182 -32.831  0.00  0.00    +0.000 A 
ATOM      2  C   UNL     1     -46.079  -2.980 -31.498  0.00  0.00    +0.000 A 
ATOM      3  C   UNL     1     -44.888  -0.919 -31.378  0.00  0.00    +0.000 A 
ATOM      4  C   UNL     1     -44.425  -1.077 -32.680  0.00  0.00    +0.000 A 
ATOM      5  C   UNL     1     -44.801  -2.208 -33.400  0.00  0.00    +0.000 A 
ATOM      6  N   UNL     1     -45.694  -1.862 -30.824  0.00  0.00    +0.000 NA
ENDROOT
BRANCH   1   8
ATOM      7  C   UNL     1     -45.899  -6.205 -34.638  0.00  0.00    +0.000 A 
ATOM      8  C   UNL     1     -45.987  -4.357 -33.666  0.00  0.00    +0.000 A 
ATOM      9  N   UNL     1     -45.172  -5.426 -33.817  0.00  0.00    +0.000 NA
ATOM     10  N   UNL     1     -47.136  -4.496 -34.359  0.00  0.00    +0.000 NA
ATOM     11  O   UNL     1     -47.043  -5.651 -34.944  0.00  0.00    +0.000 OA
BRANCH   7  13
ATOM     12  C   UNL     1     -45.283  -7.511 -36.631  0.00  0.00    +0.000 C 
ATOM     13  C   UNL     1     -45.451  -7.539 -35.125  0.00  0.00    +0.000 C 
ENDBRANCH   7  13
ENDBRANCH   1   8
BRANCH   2  14
ATOM     14  S   UNL     1     -47.145  -4.135 -30.634  0.00  0.00    +0.000 S 
BRANCH  14  15
ATOM     15  C   UNL     1     -45.734  -5.126 -30.058  0.00  0.00    +0.000 C 
BRANCH  15  16
ATOM     16  C   UNL     1     -46.199  -6.469 -29.620  0.00  0.00    +0.000 C 
ATOM     17  N   UNL     1     -47.267  -7.114 -30.314  0.00  0.00    +0.000 NA
ATOM     18  O   UNL     1     -45.651  -7.024 -28.629  0.00  0.00    +0.000 OA
BRANCH  17  19
ATOM     19  C   UNL     1     -47.756  -8.427 -29.925  0.00  0.00    +0.000 C 
BRANCH  19  20
ATOM     20  C   UNL     1     -46.996  -9.481 -30.650  0.00  0.00    +0.000 A 
ATOM     21  C   UNL     1     -46.616  -9.288 -31.981  0.00  0.00    +0.000 A 
ATOM     22  C   UNL     1     -45.923 -10.293 -32.657  0.00  0.00    +0.000 A 
ATOM     23  C   UNL     1     -45.625 -11.484 -31.990  0.00  0.00    +0.000 A 
ATOM     24  C   UNL     1     -46.685 -10.688 -30.020  0.00  0.00    +0.000 A 
ATOM     25  N   UNL     1     -46.009 -11.656 -30.696  0.00  0.00    +0.000 NA
ENDBRANCH  19  20
ENDBRANCH  17  19
ENDBRANCH  15  16
ENDBRANCH  14  15
ENDBRANCH   2  14
TORSDOF 7
ENDMDL
MODEL 3
REMARK VINA RESULT:      -5.4      9.181     12.326
REMARK  Name = ZINC000065211338 ZINC65211338 ChemDiv-P103-1195 MolPort-010-919-102 PubChem-53160942
REMARK  7 active torsions:
REMARK  status: ('A' for Active; 'I' for Inactive)
REMARK    1  A    between atoms: C_2  and  C_3
REMARK    2  A    between atoms: C_4  and  C_5
REMARK    3  A    between atoms: C_6  and  S_25
REMARK    4  A    between atoms: C_7  and  C_8
REMARK    5  A    between atoms: C_7  and  S_25
REMARK    6  A    between atoms: C_9  and  C_10
REMARK    7  A    between atoms: C_9  and  N_20
REMARK                            x       y       z     vdW  Elec       q    Type
REMARK                         _______ _______ _______ _____ _____    ______ ____
ROOT
ATOM      1  C   UNL     1     -46.299  -5.766 -32.964  0.00  0.00    +0.000 A 
ATOM      2  C   UNL     1     -46.975  -6.205 -31.796  0.00  0.00    +0.000 A 
ATOM      3  C   UNL     1     -47.025  -8.439 -32.625  0.00  0.00    +0.000 A 
ATOM      4  C   UNL     1     -46.366  -8.053 -33.788  0.00  0.00    +0.000 A 
ATOM      5  C   UNL     1     -46.006  -6.718 -33.951  0.00  0.00    +0.000 A 
ATOM      6  N   UNL     1     -47.311  -7.518 -31.668  0.00  0.00    +0.000 NA
ENDROOT
BRANCH   1   8
ATOM      7  C   UNL     1     -44.725  -2.629 -33.360  0.00  0.00    +0.000 A 
ATOM      8  C   UNL     1     -45.881  -4.364 -33.215  0.00  0.00    +0.000 A 
ATOM      9  N   UNL     1     -44.619  -3.922 -33.006  0.00  0.00    +0.000 NA
ATOM     10  N   UNL     1     -46.690  -3.385 -33.669  0.00  0.00    +0.000 NA
ATOM     11  O   UNL     1     -45.938  -2.330 -33.747  0.00  0.00    +0.000 OA
BRANCH   7  13
ATOM     12  C   UNL     1     -43.978  -0.441 -32.514  0.00  0.00    +0.000 C 
ATOM     13  C   UNL     1     -43.591  -1.664 -33.322  0.00  0.00    +0.000 C 
ENDBRANCH   7  13
ENDBRANCH   1   8
BRANCH   2  14
ATOM     14  S   UNL     1     -47.420  -5.108 -30.447  0.00  0.00    +0.000 S 
BRANCH  14  15
ATOM     15  C   UNL     1     -45.901  -5.497 -29.528  0.00  0.00    +0.000 C 
BRANCH  15  16
ATOM     16  C   UNL     1     -46.221  -6.349 -28.352  0.00  0.00    +0.000 C 
ATOM     17  N   UNL     1     -46.268  -7.769 -28.493  0.00  0.00    +0.000 NA
ATOM     18  O   UNL     1     -46.461  -5.807 -27.239  0.00  0.00    +0.000 OA
BRANCH  17  19
ATOM     19  C   UNL     1     -46.576  -8.644 -27.373  0.00  0.00    +0.000 C 
BRANCH  19  20
ATOM     20  C   UNL     1     -46.742 -10.041 -27.860  0.00  0.00    +0.000 A 
ATOM     21  C   UNL     1     -46.824 -11.100 -26.952  0.00  0.00    +0.000 A 
ATOM     22  C   UNL     1     -46.955 -12.408 -27.421  0.00  0.00    +0.000 A 
ATOM     23  C   UNL     1     -46.998 -12.637 -28.799  0.00  0.00    +0.000 A 
ATOM     24  C   UNL     1     -46.781 -10.312 -29.230  0.00  0.00    +0.000 A 
ATOM     25  N   UNL     1     -46.909 -11.594 -29.667  0.00  0.00    +0.000 NA
ENDBRANCH  19  20
ENDBRANCH  17  19
ENDBRANCH  15  16
ENDBRANCH  14  15
ENDBRANCH   2  14
TORSDOF 7
ENDMDL
