MODEL 1
REMARK VINA RESULT:      -5.8      0.000      0.000
REMARK  Name = ZINC000225679518 PubChem-100720123
REMARK  7 active torsions:
REMARK  status: ('A' for Active; 'I' for Inactive)
REMARK    1  A    between atoms: C_5  and  S_21
REMARK    2  A    between atoms: C_8  and  N_20
REMARK    3  A    between atoms: C_10  and  O_28
REMARK    4  A    between atoms: C_11  and  O_27
REMARK    5  A    between atoms: C_13  and  C_14
REMARK    6  A    between atoms: C_14  and  O_26
REMARK    7  A    between atoms: N_20  and  S_21
REMARK                            x       y       z     vdW  Elec       q    Type
REMARK                         _______ _______ _______ _____ _____    ______ ____
ROOT
ATOM      1  N   UNL     1     -45.364 -16.676 -25.657  0.00  0.00    +0.000 NA
ENDROOT
BRANCH   1   2
ATOM      2  C   UNL     1     -45.387 -16.976 -24.255  0.00  0.00    +0.000 A 
ATOM      3  C   UNL     1     -45.598 -15.950 -23.328  0.00  0.00    +0.000 A 
ATOM      4  C   UNL     1     -45.642 -16.199 -21.950  0.00  0.00    +0.000 A 
ATOM      5  C   UNL     1     -45.461 -17.521 -21.485  0.00  0.00    +0.000 A 
ATOM      6  C   UNL     1     -45.248 -18.544 -22.413  0.00  0.00    +0.000 A 
ATOM      7  C   UNL     1     -45.209 -18.299 -23.793  0.00  0.00    +0.000 A 
BRANCH   7   8
ATOM      8  C   UNL     1     -44.981 -19.448 -24.705  0.00  0.00    +0.000 C 
ATOM      9  O   UNL     1     -45.939 -19.893 -25.395  0.00  0.00    +0.000 OA
BRANCH   8  11
ATOM     10  C   UNL     1     -42.535 -19.274 -24.936  0.00  0.00    +0.000 C 
ATOM     11  O   UNL     1     -43.721 -20.042 -24.808  0.00  0.00    +0.000 OA
ENDBRANCH   8  11
ENDBRANCH   7   8
BRANCH   5  13
ATOM     12  C   UNL     1     -46.547 -18.573 -19.491  0.00  0.00    +0.000 C 
ATOM     13  O   UNL     1     -45.482 -17.883 -20.130  0.00  0.00    +0.000 OA
ENDBRANCH   5  13
BRANCH   4  15
ATOM     14  C   UNL     1     -46.298 -13.858 -21.465  0.00  0.00    +0.000 C 
ATOM     15  O   UNL     1     -45.865 -15.147 -21.053  0.00  0.00    +0.000 OA
ENDBRANCH   4  15
ENDBRANCH   1   2
BRANCH   1  16
ATOM     16  S   UNL     1     -44.049 -15.877 -26.456  0.00  0.00    +0.000 S 
ATOM     17  O   UNL     1     -43.071 -15.388 -25.423  0.00  0.00    +0.000 OA
ATOM     18  O   UNL     1     -43.356 -16.850 -27.367  0.00  0.00    +0.000 OA
BRANCH  16  23
ATOM     19  C   UNL     1     -45.943 -10.970 -30.950  0.00  0.00    +0.000 C 
ATOM     20  C   UNL     1     -45.564 -12.369 -28.920  0.00  0.00    +0.000 A 
ATOM     21  C   UNL     1     -45.795 -12.430 -27.552  0.00  0.00    +0.000 A 
ATOM     22  C   UNL     1     -45.354 -13.494 -26.772  0.00  0.00    +0.000 A 
ATOM     23  C   UNL     1     -44.654 -14.533 -27.406  0.00  0.00    +0.000 A 
ATOM     24  C   UNL     1     -44.414 -14.483 -28.793  0.00  0.00    +0.000 A 
ATOM     25  C   UNL     1     -44.869 -13.400 -29.561  0.00  0.00    +0.000 A 
ATOM     26  C   UNL     1     -46.680 -10.444 -28.636  0.00  0.00    +0.000 A 
ATOM     27  N   UNL     1     -46.060 -11.258 -29.527  0.00  0.00    +0.000 N 
ATOM     28  S   UNL     1     -46.643 -11.062 -27.063  0.00  0.00    +0.000 S 
ATOM     29  O   UNL     1     -47.222  -9.352 -28.952  0.00  0.00    +0.000 OA
ENDBRANCH  16  23
ENDBRANCH   1  16
TORSDOF 7
ENDMDL
MODEL 2
REMARK VINA RESULT:      -5.8      1.734      2.201
REMARK  Name = ZINC000225679518 PubChem-100720123
REMARK  7 active torsions:
REMARK  status: ('A' for Active; 'I' for Inactive)
REMARK    1  A    between atoms: C_5  and  S_21
REMARK    2  A    between atoms: C_8  and  N_20
REMARK    3  A    between atoms: C_10  and  O_28
REMARK    4  A    between atoms: C_11  and  O_27
REMARK    5  A    between atoms: C_13  and  C_14
REMARK    6  A    between atoms: C_14  and  O_26
REMARK    7  A    between atoms: N_20  and  S_21
REMARK                            x       y       z     vdW  Elec       q    Type
REMARK                         _______ _______ _______ _____ _____    ______ ____
ROOT
ATOM      1  N   UNL     1     -45.909 -16.020 -23.961  0.00  0.00    +0.000 NA
ENDROOT
BRANCH   1   2
ATOM      2  C   UNL     1     -45.431 -16.969 -22.997  0.00  0.00    +0.000 A 
ATOM      3  C   UNL     1     -45.340 -16.605 -21.649  0.00  0.00    +0.000 A 
ATOM      4  C   UNL     1     -44.893 -17.504 -20.672  0.00  0.00    +0.000 A 
ATOM      5  C   UNL     1     -44.516 -18.809 -21.061  0.00  0.00    +0.000 A 
ATOM      6  C   UNL     1     -44.606 -19.168 -22.408  0.00  0.00    +0.000 A 
ATOM      7  C   UNL     1     -45.058 -18.274 -23.388  0.00  0.00    +0.000 A 
BRANCH   7   8
ATOM      8  C   UNL     1     -45.124 -18.745 -24.794  0.00  0.00    +0.000 C 
ATOM      9  O   UNL     1     -46.215 -19.185 -25.252  0.00  0.00    +0.000 OA
BRANCH   8  11
ATOM     10  C   UNL     1     -43.332 -17.492 -25.929  0.00  0.00    +0.000 C 
ATOM     11  O   UNL     1     -43.996 -18.707 -25.615  0.00  0.00    +0.000 OA
ENDBRANCH   8  11
ENDBRANCH   7   8
BRANCH   5  13
ATOM     12  C   UNL     1     -42.772 -19.781 -19.552  0.00  0.00    +0.000 C 
ATOM     13  O   UNL     1     -44.052 -19.786 -20.169  0.00  0.00    +0.000 OA
ENDBRANCH   5  13
BRANCH   4  15
ATOM     14  C   UNL     1     -45.137 -15.789 -18.898  0.00  0.00    +0.000 C 
ATOM     15  O   UNL     1     -44.824 -17.106 -19.331  0.00  0.00    +0.000 OA
ENDBRANCH   4  15
ENDBRANCH   1   2
BRANCH   1  16
ATOM     16  S   UNL     1     -45.437 -14.352 -23.994  0.00  0.00    +0.000 S 
ATOM     17  O   UNL     1     -46.248 -13.591 -22.982  0.00  0.00    +0.000 OA
ATOM     18  O   UNL     1     -43.981 -14.240 -23.642  0.00  0.00    +0.000 OA
BRANCH  16  23
ATOM     19  C   UNL     1     -46.080 -12.594 -30.654  0.00  0.00    +0.000 C 
ATOM     20  C   UNL     1     -46.036 -12.633 -28.161  0.00  0.00    +0.000 A 
ATOM     21  C   UNL     1     -46.246 -11.852 -27.032  0.00  0.00    +0.000 A 
ATOM     22  C   UNL     1     -46.082 -12.350 -25.744  0.00  0.00    +0.000 A 
ATOM     23  C   UNL     1     -45.692 -13.691 -25.599  0.00  0.00    +0.000 A 
ATOM     24  C   UNL     1     -45.476 -14.494 -26.736  0.00  0.00    +0.000 A 
ATOM     25  C   UNL     1     -45.648 -13.970 -28.027  0.00  0.00    +0.000 A 
ATOM     26  C   UNL     1     -46.605 -10.696 -29.139  0.00  0.00    +0.000 A 
ATOM     27  N   UNL     1     -46.238 -11.986 -29.340  0.00  0.00    +0.000 N 
ATOM     28  S   UNL     1     -46.698 -10.299 -27.498  0.00  0.00    +0.000 S 
ATOM     29  O   UNL     1     -46.850  -9.889 -30.074  0.00  0.00    +0.000 OA
ENDBRANCH  16  23
ENDBRANCH   1  16
TORSDOF 7
ENDMDL
MODEL 3
REMARK VINA RESULT:      -5.6      5.685      9.623
REMARK  Name = ZINC000225679518 PubChem-100720123
REMARK  7 active torsions:
REMARK  status: ('A' for Active; 'I' for Inactive)
REMARK    1  A    between atoms: C_5  and  S_21
REMARK    2  A    between atoms: C_8  and  N_20
REMARK    3  A    between atoms: C_10  and  O_28
REMARK    4  A    between atoms: C_11  and  O_27
REMARK    5  A    between atoms: C_13  and  C_14
REMARK    6  A    between atoms: C_14  and  O_26
REMARK    7  A    between atoms: N_20  and  S_21
REMARK                            x       y       z     vdW  Elec       q    Type
REMARK                         _______ _______ _______ _____ _____    ______ ____
ROOT
ATOM      1  N   UNL     1     -46.950  -7.607 -28.493  0.00  0.00    +0.000 NA
ENDROOT
BRANCH   1   2
ATOM      2  C   UNL     1     -46.861  -9.037 -28.551  0.00  0.00    +0.000 A 
ATOM      3  C   UNL     1     -46.907  -9.786 -27.370  0.00  0.00    +0.000 A 
ATOM      4  C   UNL     1     -46.838 -11.185 -27.380  0.00  0.00    +0.000 A 
ATOM      5  C   UNL     1     -46.711 -11.857 -28.617  0.00  0.00    +0.000 A 
ATOM      6  C   UNL     1     -46.664 -11.107 -29.795  0.00  0.00    +0.000 A 
ATOM      7  C   UNL     1     -46.738  -9.707 -29.790  0.00  0.00    +0.000 A 
BRANCH   7   8
ATOM      8  C   UNL     1     -46.684  -8.994 -31.090  0.00  0.00    +0.000 C 
ATOM      9  O   UNL     1     -47.756  -8.610 -31.634  0.00  0.00    +0.000 OA
BRANCH   8  11
ATOM     10  C   UNL     1     -44.221  -9.042 -31.100  0.00  0.00    +0.000 C 
ATOM     11  O   UNL     1     -45.462  -8.743 -31.719  0.00  0.00    +0.000 OA
ENDBRANCH   8  11
ENDBRANCH   7   8
BRANCH   5  13
ATOM     12  C   UNL     1     -45.427 -14.003 -28.693  0.00  0.00    +0.000 C 
ATOM     13  O   UNL     1     -46.631 -13.251 -28.744  0.00  0.00    +0.000 OA
ENDBRANCH   5  13
BRANCH   4  15
ATOM     14  C   UNL     1     -45.767 -12.089 -25.336  0.00  0.00    +0.000 C 
ATOM     15  O   UNL     1     -46.896 -11.900 -26.178  0.00  0.00    +0.000 OA
ENDBRANCH   4  15
ENDBRANCH   1   2
BRANCH   1  16
ATOM     16  S   UNL     1     -45.642  -6.574 -28.013  0.00  0.00    +0.000 S 
ATOM     17  O   UNL     1     -46.126  -5.635 -26.944  0.00  0.00    +0.000 OA
ATOM     18  O   UNL     1     -44.523  -7.412 -27.463  0.00  0.00    +0.000 OA
BRANCH  16  23
ATOM     19  C   UNL     1     -42.442  -3.348 -33.229  0.00  0.00    +0.000 C 
ATOM     20  C   UNL     1     -44.095  -4.193 -31.564  0.00  0.00    +0.000 A 
ATOM     21  C   UNL     1     -45.421  -4.092 -31.164  0.00  0.00    +0.000 A 
ATOM     22  C   UNL     1     -45.928  -4.815 -30.089  0.00  0.00    +0.000 A 
ATOM     23  C   UNL     1     -45.055  -5.671 -29.397  0.00  0.00    +0.000 A 
ATOM     24  C   UNL     1     -43.708  -5.782 -29.794  0.00  0.00    +0.000 A 
ATOM     25  C   UNL     1     -43.218  -5.043 -30.883  0.00  0.00    +0.000 A 
ATOM     26  C   UNL     1     -44.834  -2.700 -33.066  0.00  0.00    +0.000 A 
ATOM     27  N   UNL     1     -43.768  -3.414 -32.630  0.00  0.00    +0.000 N 
ATOM     28  S   UNL     1     -46.228  -3.000 -32.158  0.00  0.00    +0.000 S 
ATOM     29  O   UNL     1     -44.788  -1.905 -34.042  0.00  0.00    +0.000 OA
ENDBRANCH  16  23
ENDBRANCH   1  16
TORSDOF 7
ENDMDL
