MODEL 1
REMARK VINA RESULT:      -6.5      0.000      0.000
REMARK  Name = ZINC000096181850 ZINC96181850 PubChem-97457680
REMARK  3 active torsions:
REMARK  status: ('A' for Active; 'I' for Inactive)
REMARK    1  A    between atoms: C_5  and  N_21
REMARK    2  A    between atoms: C_7  and  C_8
REMARK    3  A    between atoms: C_12  and  C_13
REMARK                            x       y       z     vdW  Elec       q    Type
REMARK                         _______ _______ _______ _____ _____    ______ ____
ROOT
ATOM      1  C   UNL     1     -45.941 -18.017 -20.461  0.00  0.00    +0.000 C 
ATOM      2  C   UNL     1     -45.941 -19.322 -19.663  0.00  0.00    +0.000 C 
ATOM      3  C   UNL     1     -44.754 -19.397 -18.715  0.00  0.00    +0.000 C 
ATOM      4  C   UNL     1     -43.474 -19.131 -19.440  0.00  0.00    +0.000 C 
ATOM      5  C   UNL     1     -44.655 -17.843 -21.286  0.00  0.00    +0.000 C 
ATOM      6  C   UNL     1     -42.161 -17.721 -21.036  0.00  0.00    +0.000 C 
ATOM      7  N   UNL     1     -43.440 -18.220 -20.551  0.00  0.00    +0.000 N 
ATOM      8  O   UNL     1     -42.416 -19.684 -19.036  0.00  0.00    +0.000 OA
ENDROOT
BRANCH   5   9
ATOM      9  C   UNL     1     -44.740 -18.565 -22.597  0.00  0.00    +0.000 A 
ATOM     10  C   UNL     1     -45.726 -18.244 -23.544  0.00  0.00    +0.000 A 
ATOM     11  C   UNL     1     -45.784 -18.930 -24.758  0.00  0.00    +0.000 A 
ATOM     12  C   UNL     1     -44.865 -19.947 -25.030  0.00  0.00    +0.000 A 
ATOM     13  C   UNL     1     -43.892 -20.281 -24.082  0.00  0.00    +0.000 A 
ATOM     14  C   UNL     1     -43.830 -19.591 -22.870  0.00  0.00    +0.000 A 
ATOM     15  F   UNL     1     -44.921 -20.609 -26.208  0.00  0.00    +0.000 F 
ENDBRANCH   5   9
BRANCH   1  16
ATOM     16  C   UNL     1     -46.232 -16.832 -19.593  0.00  0.00    +0.000 C 
ATOM     17  N   UNL     1     -45.447 -15.639 -19.712  0.00  0.00    +0.000 NA
ATOM     18  O   UNL     1     -47.157 -16.914 -18.742  0.00  0.00    +0.000 OA
BRANCH  17  23
ATOM     19  C   UNL     1     -44.191 -13.193 -15.615  0.00  0.00    +0.000 C 
ATOM     20  C   UNL     1     -44.961 -13.279 -16.884  0.00  0.00    +0.000 A 
ATOM     21  C   UNL     1     -45.804 -12.233 -17.264  0.00  0.00    +0.000 A 
ATOM     22  C   UNL     1     -46.517 -12.334 -18.460  0.00  0.00    +0.000 A 
ATOM     23  C   UNL     1     -45.565 -14.473 -18.891  0.00  0.00    +0.000 A 
ATOM     24  C   UNL     1     -44.841 -14.408 -17.697  0.00  0.00    +0.000 A 
ATOM     25  N   UNL     1     -46.387 -13.441 -19.240  0.00  0.00    +0.000 NA
ENDBRANCH  17  23
ENDBRANCH   1  16
TORSDOF 3
ENDMDL
MODEL 2
REMARK VINA RESULT:      -6.4     15.578     17.292
REMARK  Name = ZINC000096181850 ZINC96181850 PubChem-97457680
REMARK  3 active torsions:
REMARK  status: ('A' for Active; 'I' for Inactive)
REMARK    1  A    between atoms: C_5  and  N_21
REMARK    2  A    between atoms: C_7  and  C_8
REMARK    3  A    between atoms: C_12  and  C_13
REMARK                            x       y       z     vdW  Elec       q    Type
REMARK                         _______ _______ _______ _____ _____    ______ ____
ROOT
ATOM      1  C   UNL     1     -45.894  -3.423 -31.193  0.00  0.00    +0.000 C 
ATOM      2  C   UNL     1     -46.927  -3.233 -32.303  0.00  0.00    +0.000 C 
ATOM      3  C   UNL     1     -47.173  -4.527 -33.065  0.00  0.00    +0.000 C 
ATOM      4  C   UNL     1     -45.885  -5.125 -33.532  0.00  0.00    +0.000 C 
ATOM      5  C   UNL     1     -44.546  -3.925 -31.736  0.00  0.00    +0.000 C 
ATOM      6  C   UNL     1     -43.532  -5.816 -33.036  0.00  0.00    +0.000 C 
ATOM      7  N   UNL     1     -44.686  -4.975 -32.753  0.00  0.00    +0.000 N 
ATOM      8  O   UNL     1     -45.874  -5.800 -34.596  0.00  0.00    +0.000 OA
ENDROOT
BRANCH   5   9
ATOM      9  C   UNL     1     -43.698  -2.794 -32.237  0.00  0.00    +0.000 A 
ATOM     10  C   UNL     1     -44.274  -1.650 -32.810  0.00  0.00    +0.000 A 
ATOM     11  C   UNL     1     -43.464  -0.610 -33.269  0.00  0.00    +0.000 A 
ATOM     12  C   UNL     1     -42.074  -0.711 -33.167  0.00  0.00    +0.000 A 
ATOM     13  C   UNL     1     -41.496  -1.857 -32.612  0.00  0.00    +0.000 A 
ATOM     14  C   UNL     1     -42.306  -2.895 -32.148  0.00  0.00    +0.000 A 
ATOM     15  F   UNL     1     -41.290   0.298 -33.610  0.00  0.00    +0.000 F 
ENDBRANCH   5   9
BRANCH   1  16
ATOM     16  C   UNL     1     -46.420  -4.277 -30.080  0.00  0.00    +0.000 C 
ATOM     17  N   UNL     1     -45.598  -5.300 -29.505  0.00  0.00    +0.000 NA
ATOM     18  O   UNL     1     -47.601  -4.097 -29.682  0.00  0.00    +0.000 OA
BRANCH  17  23
ATOM     19  C   UNL     1     -46.108  -6.444 -24.732  0.00  0.00    +0.000 C 
ATOM     20  C   UNL     1     -46.247  -6.802 -26.169  0.00  0.00    +0.000 A 
ATOM     21  C   UNL     1     -46.759  -8.048 -26.534  0.00  0.00    +0.000 A 
ATOM     22  C   UNL     1     -46.881  -8.363 -27.890  0.00  0.00    +0.000 A 
ATOM     23  C   UNL     1     -46.006  -6.235 -28.501  0.00  0.00    +0.000 A 
ATOM     24  C   UNL     1     -45.864  -5.890 -27.154  0.00  0.00    +0.000 A 
ATOM     25  N   UNL     1     -46.504  -7.461 -28.836  0.00  0.00    +0.000 NA
ENDBRANCH  17  23
ENDBRANCH   1  16
TORSDOF 3
ENDMDL
MODEL 3
REMARK VINA RESULT:      -6.2      4.127      8.466
REMARK  Name = ZINC000096181850 ZINC96181850 PubChem-97457680
REMARK  3 active torsions:
REMARK  status: ('A' for Active; 'I' for Inactive)
REMARK    1  A    between atoms: C_5  and  N_21
REMARK    2  A    between atoms: C_7  and  C_8
REMARK    3  A    between atoms: C_12  and  C_13
REMARK                            x       y       z     vdW  Elec       q    Type
REMARK                         _______ _______ _______ _____ _____    ______ ____
ROOT
ATOM      1  C   UNL     1     -45.414 -18.174 -24.260  0.00  0.00    +0.000 C 
ATOM      2  C   UNL     1     -46.221 -17.096 -24.983  0.00  0.00    +0.000 C 
ATOM      3  C   UNL     1     -45.314 -16.069 -25.646  0.00  0.00    +0.000 C 
ATOM      4  C   UNL     1     -44.318 -15.528 -24.670  0.00  0.00    +0.000 C 
ATOM      5  C   UNL     1     -44.491 -17.581 -23.182  0.00  0.00    +0.000 C 
ATOM      6  C   UNL     1     -42.615 -15.942 -22.886  0.00  0.00    +0.000 C 
ATOM      7  N   UNL     1     -43.802 -16.360 -23.618  0.00  0.00    +0.000 N 
ATOM      8  O   UNL     1     -43.906 -14.346 -24.810  0.00  0.00    +0.000 OA
ENDROOT
BRANCH   5   9
ATOM      9  C   UNL     1     -45.223 -17.360 -21.892  0.00  0.00    +0.000 A 
ATOM     10  C   UNL     1     -45.537 -16.067 -21.444  0.00  0.00    +0.000 A 
ATOM     11  C   UNL     1     -46.219 -15.887 -20.240  0.00  0.00    +0.000 A 
ATOM     12  C   UNL     1     -46.583 -16.995 -19.472  0.00  0.00    +0.000 A 
ATOM     13  C   UNL     1     -46.257 -18.285 -19.906  0.00  0.00    +0.000 A 
ATOM     14  C   UNL     1     -45.579 -18.465 -21.113  0.00  0.00    +0.000 A 
ATOM     15  F   UNL     1     -47.246 -16.819 -18.306  0.00  0.00    +0.000 F 
ENDBRANCH   5   9
BRANCH   1  16
ATOM     16  C   UNL     1     -44.682 -19.062 -25.219  0.00  0.00    +0.000 C 
ATOM     17  N   UNL     1     -43.290 -18.847 -25.484  0.00  0.00    +0.000 NA
ATOM     18  O   UNL     1     -45.317 -19.977 -25.806  0.00  0.00    +0.000 OA
BRANCH  17  23
ATOM     19  C   UNL     1     -42.507 -20.253 -30.148  0.00  0.00    +0.000 C 
ATOM     20  C   UNL     1     -42.118 -20.262 -28.712  0.00  0.00    +0.000 A 
ATOM     21  C   UNL     1     -40.994 -20.978 -28.296  0.00  0.00    +0.000 A 
ATOM     22  C   UNL     1     -40.646 -20.972 -26.943  0.00  0.00    +0.000 A 
ATOM     23  C   UNL     1     -42.498 -19.565 -26.435  0.00  0.00    +0.000 A 
ATOM     24  C   UNL     1     -42.878 -19.554 -27.780  0.00  0.00    +0.000 A 
ATOM     25  N   UNL     1     -41.399 -20.275 -26.049  0.00  0.00    +0.000 NA
ENDBRANCH  17  23
ENDBRANCH   1  16
TORSDOF 3
ENDMDL
