MODEL 1
REMARK VINA RESULT:      -7.1      0.000      0.000
REMARK  Name = ZINC000020924280 ZINC20924280 PubChem-92705263
REMARK  4 active torsions:
REMARK  status: ('A' for Active; 'I' for Inactive)
REMARK    1  A    between atoms: C_5  and  C_8
REMARK    2  A    between atoms: C_12  and  C_13
REMARK    3  A    between atoms: C_15  and  O_24
REMARK    4  A    between atoms: C_17  and  O_23
REMARK                            x       y       z     vdW  Elec       q    Type
REMARK                         _______ _______ _______ _____ _____    ______ ____
ROOT
ATOM      1  C   UNL     1     -46.540  -3.058 -32.541  0.00  0.00    +0.000 C 
ATOM      2  C   UNL     1     -46.794  -4.076 -33.662  0.00  0.00    +0.000 C 
ATOM      3  C   UNL     1     -46.162  -5.392 -33.344  0.00  0.00    +0.000 C 
ATOM      4  C   UNL     1     -46.375  -4.891 -30.930  0.00  0.00    +0.000 C 
ATOM      5  C   UNL     1     -46.762  -4.612 -28.420  0.00  0.00    +0.000 C 
ATOM      6  O   UNL     1     -45.779  -6.153 -34.269  0.00  0.00    +0.000 OA
ATOM      7  O   UNL     1     -47.019  -3.381 -28.518  0.00  0.00    +0.000 OA
ATOM      8  N   UNL     1     -46.020  -5.792 -31.983  0.00  0.00    +0.000 NA
ATOM      9  N   UNL     1     -46.646  -3.646 -31.200  0.00  0.00    +0.000 NA
ATOM     10  N   UNL     1     -46.437  -5.383 -29.587  0.00  0.00    +0.000 NA
ENDROOT
BRANCH   1  15
ATOM     11  C   UNL     1     -41.507  -0.275 -33.188  0.00  0.00    +0.000 C 
ATOM     12  C   UNL     1     -42.796  -0.996 -33.027  0.00  0.00    +0.000 A 
ATOM     13  C   UNL     1     -43.780  -0.486 -32.175  0.00  0.00    +0.000 A 
ATOM     14  C   UNL     1     -44.993  -1.164 -32.022  0.00  0.00    +0.000 A 
ATOM     15  C   UNL     1     -45.227  -2.356 -32.718  0.00  0.00    +0.000 A 
ATOM     16  C   UNL     1     -44.237  -2.862 -33.575  0.00  0.00    +0.000 A 
ATOM     17  C   UNL     1     -43.025  -2.185 -33.727  0.00  0.00    +0.000 A 
ENDBRANCH   1  15
BRANCH   5  18
ATOM     18  C   UNL     1     -46.792  -5.263 -27.099  0.00  0.00    +0.000 A 
ATOM     19  C   UNL     1     -47.078  -4.518 -25.946  0.00  0.00    +0.000 A 
ATOM     20  C   UNL     1     -47.109  -5.130 -24.690  0.00  0.00    +0.000 A 
ATOM     21  C   UNL     1     -46.849  -6.506 -24.587  0.00  0.00    +0.000 A 
ATOM     22  C   UNL     1     -46.562  -7.263 -25.725  0.00  0.00    +0.000 A 
ATOM     23  C   UNL     1     -46.536  -6.635 -26.981  0.00  0.00    +0.000 A 
BRANCH  22  25
ATOM     24  C   UNL     1     -47.060  -9.625 -26.266  0.00  0.00    +0.000 C 
ATOM     25  O   UNL     1     -46.309  -8.630 -25.584  0.00  0.00    +0.000 OA
ENDBRANCH  22  25
BRANCH  20  27
ATOM     26  C   UNL     1     -47.265  -2.938 -23.556  0.00  0.00    +0.000 C 
ATOM     27  O   UNL     1     -47.397  -4.352 -23.565  0.00  0.00    +0.000 OA
ENDBRANCH  20  27
ENDBRANCH   5  18
TORSDOF 4
ENDMDL
MODEL 2
REMARK VINA RESULT:      -6.8      0.549      2.756
REMARK  Name = ZINC000020924280 ZINC20924280 PubChem-92705263
REMARK  4 active torsions:
REMARK  status: ('A' for Active; 'I' for Inactive)
REMARK    1  A    between atoms: C_5  and  C_8
REMARK    2  A    between atoms: C_12  and  C_13
REMARK    3  A    between atoms: C_15  and  O_24
REMARK    4  A    between atoms: C_17  and  O_23
REMARK                            x       y       z     vdW  Elec       q    Type
REMARK                         _______ _______ _______ _____ _____    ______ ____
ROOT
ATOM      1  C   UNL     1     -46.393  -3.140 -32.699  0.00  0.00    +0.000 C 
ATOM      2  C   UNL     1     -46.566  -4.101 -33.884  0.00  0.00    +0.000 C 
ATOM      3  C   UNL     1     -45.874  -5.400 -33.626  0.00  0.00    +0.000 C 
ATOM      4  C   UNL     1     -46.173  -5.056 -31.194  0.00  0.00    +0.000 C 
ATOM      5  C   UNL     1     -46.637  -4.948 -28.684  0.00  0.00    +0.000 C 
ATOM      6  O   UNL     1     -45.429  -6.084 -34.584  0.00  0.00    +0.000 OA
ATOM      7  O   UNL     1     -46.955  -3.728 -28.716  0.00  0.00    +0.000 OA
ATOM      8  N   UNL     1     -45.745  -5.873 -32.287  0.00  0.00    +0.000 NA
ATOM      9  N   UNL     1     -46.502  -3.812 -31.398  0.00  0.00    +0.000 NA
ATOM     10  N   UNL     1     -46.243  -5.630 -29.885  0.00  0.00    +0.000 NA
ENDROOT
BRANCH   1  15
ATOM     11  C   UNL     1     -41.416  -0.216 -33.115  0.00  0.00    +0.000 C 
ATOM     12  C   UNL     1     -42.698  -0.959 -33.003  0.00  0.00    +0.000 A 
ATOM     13  C   UNL     1     -42.878  -2.150 -33.714  0.00  0.00    +0.000 A 
ATOM     14  C   UNL     1     -44.083  -2.851 -33.610  0.00  0.00    +0.000 A 
ATOM     15  C   UNL     1     -45.114  -2.363 -32.798  0.00  0.00    +0.000 A 
ATOM     16  C   UNL     1     -44.927  -1.170 -32.084  0.00  0.00    +0.000 A 
ATOM     17  C   UNL     1     -43.722  -0.469 -32.189  0.00  0.00    +0.000 A 
ENDBRANCH   1  15
BRANCH   5  18
ATOM     18  C   UNL     1     -46.665  -5.678 -27.404  0.00  0.00    +0.000 A 
ATOM     19  C   UNL     1     -46.594  -7.078 -27.384  0.00  0.00    +0.000 A 
ATOM     20  C   UNL     1     -46.619  -7.776 -26.174  0.00  0.00    +0.000 A 
ATOM     21  C   UNL     1     -46.719  -7.063 -24.968  0.00  0.00    +0.000 A 
ATOM     22  C   UNL     1     -46.791  -5.669 -24.971  0.00  0.00    +0.000 A 
ATOM     23  C   UNL     1     -46.763  -4.980 -26.193  0.00  0.00    +0.000 A 
BRANCH  22  25
ATOM     24  C   UNL     1     -47.380  -3.664 -23.646  0.00  0.00    +0.000 C 
ATOM     25  O   UNL     1     -46.888  -4.993 -23.751  0.00  0.00    +0.000 OA
ENDBRANCH  22  25
BRANCH  20  27
ATOM     26  C   UNL     1     -46.114  -9.899 -27.338  0.00  0.00    +0.000 C 
ATOM     27  O   UNL     1     -46.546  -9.172 -26.197  0.00  0.00    +0.000 OA
ENDBRANCH  20  27
ENDBRANCH   5  18
TORSDOF 4
ENDMDL
MODEL 3
REMARK VINA RESULT:      -6.8      2.024      3.458
REMARK  Name = ZINC000020924280 ZINC20924280 PubChem-92705263
REMARK  4 active torsions:
REMARK  status: ('A' for Active; 'I' for Inactive)
REMARK    1  A    between atoms: C_5  and  C_8
REMARK    2  A    between atoms: C_12  and  C_13
REMARK    3  A    between atoms: C_15  and  O_24
REMARK    4  A    between atoms: C_17  and  O_23
REMARK                            x       y       z     vdW  Elec       q    Type
REMARK                         _______ _______ _______ _____ _____    ______ ____
ROOT
ATOM      1  C   UNL     1     -47.255  -3.991 -32.747  0.00  0.00    +0.000 C 
ATOM      2  C   UNL     1     -47.376  -4.633 -34.137  0.00  0.00    +0.000 C 
ATOM      3  C   UNL     1     -46.487  -5.828 -34.254  0.00  0.00    +0.000 C 
ATOM      4  C   UNL     1     -46.648  -6.166 -31.808  0.00  0.00    +0.000 C 
ATOM      5  C   UNL     1     -46.932  -6.776 -29.343  0.00  0.00    +0.000 C 
ATOM      6  O   UNL     1     -46.021  -6.166 -35.373  0.00  0.00    +0.000 OA
ATOM      7  O   UNL     1     -47.425  -5.656 -29.042  0.00  0.00    +0.000 OA
ATOM      8  N   UNL     1     -46.191  -6.600 -33.092  0.00  0.00    +0.000 NA
ATOM      9  N   UNL     1     -47.167  -4.981 -31.666  0.00  0.00    +0.000 NA
ATOM     10  N   UNL     1     -46.535  -7.059 -30.695  0.00  0.00    +0.000 NA
ENDROOT
BRANCH   1  15
ATOM     11  C   UNL     1     -42.878  -0.219 -32.419  0.00  0.00    +0.000 C 
ATOM     12  C   UNL     1     -44.000  -1.190 -32.512  0.00  0.00    +0.000 A 
ATOM     13  C   UNL     1     -44.748  -1.503 -31.373  0.00  0.00    +0.000 A 
ATOM     14  C   UNL     1     -45.803  -2.416 -31.459  0.00  0.00    +0.000 A 
ATOM     15  C   UNL     1     -46.113  -3.022 -32.683  0.00  0.00    +0.000 A 
ATOM     16  C   UNL     1     -45.362  -2.701 -33.823  0.00  0.00    +0.000 A 
ATOM     17  C   UNL     1     -44.306  -1.789 -33.737  0.00  0.00    +0.000 A 
ENDBRANCH   1  15
BRANCH   5  18
ATOM     18  C   UNL     1     -46.758  -7.803 -28.301  0.00  0.00    +0.000 A 
ATOM     19  C   UNL     1     -46.895  -9.163 -28.613  0.00  0.00    +0.000 A 
ATOM     20  C   UNL     1     -46.731 -10.142 -27.630  0.00  0.00    +0.000 A 
ATOM     21  C   UNL     1     -46.425  -9.754 -26.315  0.00  0.00    +0.000 A 
ATOM     22  C   UNL     1     -46.285  -8.404 -25.987  0.00  0.00    +0.000 A 
ATOM     23  C   UNL     1     -46.452  -7.431 -26.985  0.00  0.00    +0.000 A 
BRANCH  22  25
ATOM     24  C   UNL     1     -46.931  -8.128 -23.615  0.00  0.00    +0.000 C 
ATOM     25  O   UNL     1     -45.980  -8.055 -24.668  0.00  0.00    +0.000 OA
ENDBRANCH  22  25
BRANCH  20  27
ATOM     26  C   UNL     1     -46.632 -11.966 -29.297  0.00  0.00    +0.000 C 
ATOM     27  O   UNL     1     -46.876 -11.487 -27.983  0.00  0.00    +0.000 OA
ENDBRANCH  20  27
ENDBRANCH   5  18
TORSDOF 4
ENDMDL
