MODEL 1
REMARK VINA RESULT:      -5.3      0.000      0.000
REMARK  Name = ZINC000011845161 MCULE-6424288385 MolPort-005-300-936
REMARK  9 active torsions:
REMARK  status: ('A' for Active; 'I' for Inactive)
REMARK    1  A    between atoms: C_2  and  C_3
REMARK    2  A    between atoms: C_2  and  N_18
REMARK    3  A    between atoms: C_3  and  C_4
REMARK    4  A    between atoms: C_4  and  O_22
REMARK    5  A    between atoms: C_6  and  C_13
REMARK    6  A    between atoms: C_14  and  C_15
REMARK    7  A    between atoms: C_14  and  N_21
REMARK    8  A    between atoms: C_15  and  O_26
REMARK    9  A    between atoms: C_16  and  O_26
REMARK                            x       y       z     vdW  Elec       q    Type
REMARK                         _______ _______ _______ _____ _____    ______ ____
ROOT
ATOM      1  C   UNL     1     -45.622 -15.944 -21.949  0.00  0.00    +0.000 A 
ATOM      2  C   UNL     1     -45.446 -14.663 -23.678  0.00  0.00    +0.000 A 
ATOM      3  C   UNL     1     -46.077 -13.891 -22.701  0.00  0.00    +0.000 A 
ATOM      4  C   UNL     1     -46.167 -14.741 -21.617  0.00  0.00    +0.000 A 
ATOM      5  C   UNL     1     -46.700 -14.537 -20.355  0.00  0.00    +0.000 A 
ATOM      6  C   UNL     1     -47.219 -15.385 -18.120  0.00  0.00    +0.000 C 
ATOM      7  C   UNL     1     -46.132 -16.793 -19.812  0.00  0.00    +0.000 A 
ATOM      8  C   UNL     1     -45.101 -18.305 -21.440  0.00  0.00    +0.000 C 
ATOM      9  N   UNL     1     -45.159 -15.913 -23.218  0.00  0.00    +0.000 N 
ATOM     10  N   UNL     1     -46.668 -15.574 -19.459  0.00  0.00    +0.000 N 
ATOM     11  N   UNL     1     -45.608 -16.989 -21.068  0.00  0.00    +0.000 N 
ATOM     12  O   UNL     1     -46.125 -17.741 -18.975  0.00  0.00    +0.000 OA
ATOM     13  O   UNL     1     -47.201 -13.421 -20.044  0.00  0.00    +0.000 OA
ENDROOT
BRANCH   2  14
ATOM     14  C   UNL     1     -45.157 -14.158 -25.037  0.00  0.00    +0.000 C 
ATOM     15  N   UNL     1     -46.127 -14.269 -26.079  0.00  0.00    +0.000 NA
ATOM     16  O   UNL     1     -44.047 -13.605 -25.270  0.00  0.00    +0.000 OA
BRANCH  15  17
ATOM     17  C   UNL     1     -45.878 -13.782 -27.425  0.00  0.00    +0.000 C 
BRANCH  17  18
ATOM     18  C   UNL     1     -46.923 -12.792 -27.796  0.00  0.00    +0.000 C 
ATOM     19  O   UNL     1     -47.350 -12.753 -28.981  0.00  0.00    +0.000 OA
BRANCH  18  20
ATOM     20  O   UNL     1     -47.444 -11.944 -26.818  0.00  0.00    +0.000 OA
BRANCH  20  21
ATOM     21  C   UNL     1     -46.958 -10.623 -26.636  0.00  0.00    +0.000 C 
ATOM     22  C   UNL     1     -46.094 -10.570 -25.394  0.00  0.00    +0.000 C 
ENDBRANCH  20  21
ENDBRANCH  18  20
ENDBRANCH  17  18
ENDBRANCH  15  17
ENDBRANCH   2  14
BRANCH   9  23
ATOM     23  C   UNL     1     -44.403 -16.955 -23.913  0.00  0.00    +0.000 C 
BRANCH  23  24
ATOM     24  C   UNL     1     -45.297 -17.713 -24.890  0.00  0.00    +0.000 C 
BRANCH  24  25
ATOM     25  C   UNL     1     -44.592 -17.966 -26.212  0.00  0.00    +0.000 C 
BRANCH  25  27
ATOM     26  C   UNL     1     -43.535 -19.652 -27.164  0.00  0.00    +0.000 C 
ATOM     27  O   UNL     1     -44.757 -19.298 -26.593  0.00  0.00    +0.000 OA
ENDBRANCH  25  27
ENDBRANCH  24  25
ENDBRANCH  23  24
ENDBRANCH   9  23
TORSDOF 9
ENDMDL
MODEL 2
REMARK VINA RESULT:      -5.1      2.242      6.908
REMARK  Name = ZINC000011845161 MCULE-6424288385 MolPort-005-300-936
REMARK  9 active torsions:
REMARK  status: ('A' for Active; 'I' for Inactive)
REMARK    1  A    between atoms: C_2  and  C_3
REMARK    2  A    between atoms: C_2  and  N_18
REMARK    3  A    between atoms: C_3  and  C_4
REMARK    4  A    between atoms: C_4  and  O_22
REMARK    5  A    between atoms: C_6  and  C_13
REMARK    6  A    between atoms: C_14  and  C_15
REMARK    7  A    between atoms: C_14  and  N_21
REMARK    8  A    between atoms: C_15  and  O_26
REMARK    9  A    between atoms: C_16  and  O_26
REMARK                            x       y       z     vdW  Elec       q    Type
REMARK                         _______ _______ _______ _____ _____    ______ ____
ROOT
ATOM      1  C   UNL     1     -44.629 -15.687 -26.717  0.00  0.00    +0.000 A 
ATOM      2  C   UNL     1     -45.295 -16.781 -24.979  0.00  0.00    +0.000 A 
ATOM      3  C   UNL     1     -46.061 -15.614 -25.004  0.00  0.00    +0.000 A 
ATOM      4  C   UNL     1     -45.609 -14.948 -26.126  0.00  0.00    +0.000 A 
ATOM      5  C   UNL     1     -45.992 -13.732 -26.667  0.00  0.00    +0.000 A 
ATOM      6  C   UNL     1     -45.747 -12.019 -28.395  0.00  0.00    +0.000 C 
ATOM      7  C   UNL     1     -44.356 -14.041 -28.380  0.00  0.00    +0.000 A 
ATOM      8  C   UNL     1     -42.874 -15.991 -28.428  0.00  0.00    +0.000 C 
ATOM      9  N   UNL     1     -44.428 -16.832 -26.028  0.00  0.00    +0.000 N 
ATOM     10  N   UNL     1     -45.359 -13.295 -27.801  0.00  0.00    +0.000 N 
ATOM     11  N   UNL     1     -43.979 -15.246 -27.835  0.00  0.00    +0.000 N 
ATOM     12  O   UNL     1     -43.776 -13.614 -29.418  0.00  0.00    +0.000 OA
ATOM     13  O   UNL     1     -46.903 -13.048 -26.123  0.00  0.00    +0.000 OA
ENDROOT
BRANCH   2  14
ATOM     14  C   UNL     1     -45.426 -17.803 -23.919  0.00  0.00    +0.000 C 
ATOM     15  N   UNL     1     -44.860 -17.590 -22.624  0.00  0.00    +0.000 NA
ATOM     16  O   UNL     1     -46.062 -18.865 -24.157  0.00  0.00    +0.000 OA
BRANCH  15  17
ATOM     17  C   UNL     1     -44.971 -18.572 -21.559  0.00  0.00    +0.000 C 
BRANCH  17  18
ATOM     18  C   UNL     1     -45.998 -18.127 -20.580  0.00  0.00    +0.000 C 
ATOM     19  O   UNL     1     -46.790 -18.973 -20.083  0.00  0.00    +0.000 OA
BRANCH  18  20
ATOM     20  O   UNL     1     -46.047 -16.787 -20.197  0.00  0.00    +0.000 OA
BRANCH  20  21
ATOM     21  C   UNL     1     -46.065 -16.399 -18.831  0.00  0.00    +0.000 C 
ATOM     22  C   UNL     1     -47.451 -15.917 -18.462  0.00  0.00    +0.000 C 
ENDBRANCH  20  21
ENDBRANCH  18  20
ENDBRANCH  17  18
ENDBRANCH  15  17
ENDBRANCH   2  14
BRANCH   9  23
ATOM     23  C   UNL     1     -43.553 -17.946 -26.393  0.00  0.00    +0.000 C 
BRANCH  23  24
ATOM     24  C   UNL     1     -42.220 -17.854 -25.656  0.00  0.00    +0.000 C 
BRANCH  24  25
ATOM     25  C   UNL     1     -41.932 -19.116 -24.862  0.00  0.00    +0.000 C 
BRANCH  25  27
ATOM     26  C   UNL     1     -42.976 -20.733 -23.784  0.00  0.00    +0.000 C 
ATOM     27  O   UNL     1     -43.002 -20.004 -24.973  0.00  0.00    +0.000 OA
ENDBRANCH  25  27
ENDBRANCH  24  25
ENDBRANCH  23  24
ENDBRANCH   9  23
TORSDOF 9
ENDMDL
MODEL 3
REMARK VINA RESULT:      -5.0      6.462     11.706
REMARK  Name = ZINC000011845161 MCULE-6424288385 MolPort-005-300-936
REMARK  9 active torsions:
REMARK  status: ('A' for Active; 'I' for Inactive)
REMARK    1  A    between atoms: C_2  and  C_3
REMARK    2  A    between atoms: C_2  and  N_18
REMARK    3  A    between atoms: C_3  and  C_4
REMARK    4  A    between atoms: C_4  and  O_22
REMARK    5  A    between atoms: C_6  and  C_13
REMARK    6  A    between atoms: C_14  and  C_15
REMARK    7  A    between atoms: C_14  and  N_21
REMARK    8  A    between atoms: C_15  and  O_26
REMARK    9  A    between atoms: C_16  and  O_26
REMARK                            x       y       z     vdW  Elec       q    Type
REMARK                         _______ _______ _______ _____ _____    ______ ____
ROOT
ATOM      1  C   UNL     1     -46.546  -6.753 -31.468  0.00  0.00    +0.000 A 
ATOM      2  C   UNL     1     -46.415  -7.291 -29.382  0.00  0.00    +0.000 A 
ATOM      3  C   UNL     1     -46.449  -5.896 -29.409  0.00  0.00    +0.000 A 
ATOM      4  C   UNL     1     -46.535  -5.594 -30.753  0.00  0.00    +0.000 A 
ATOM      5  C   UNL     1     -46.600  -4.371 -31.399  0.00  0.00    +0.000 A 
ATOM      6  C   UNL     1     -46.742  -3.083 -33.473  0.00  0.00    +0.000 C 
ATOM      7  C   UNL     1     -46.660  -5.536 -33.483  0.00  0.00    +0.000 A 
ATOM      8  C   UNL     1     -46.521  -7.979 -33.613  0.00  0.00    +0.000 C 
ATOM      9  N   UNL     1     -46.484  -7.816 -30.637  0.00  0.00    +0.000 N 
ATOM     10  N   UNL     1     -46.669  -4.359 -32.767  0.00  0.00    +0.000 N 
ATOM     11  N   UNL     1     -46.591  -6.747 -32.835  0.00  0.00    +0.000 N 
ATOM     12  O   UNL     1     -46.710  -5.503 -34.745  0.00  0.00    +0.000 OA
ATOM     13  O   UNL     1     -46.595  -3.296 -30.736  0.00  0.00    +0.000 OA
ENDROOT
BRANCH   2  14
ATOM     14  C   UNL     1     -46.302  -8.067 -28.129  0.00  0.00    +0.000 C 
ATOM     15  N   UNL     1     -47.330  -8.979 -27.739  0.00  0.00    +0.000 NA
ATOM     16  O   UNL     1     -45.276  -7.936 -27.408  0.00  0.00    +0.000 OA
BRANCH  15  17
ATOM     17  C   UNL     1     -47.252  -9.759 -26.516  0.00  0.00    +0.000 C 
BRANCH  17  18
ATOM     18  C   UNL     1     -46.923 -11.170 -26.849  0.00  0.00    +0.000 C 
ATOM     19  O   UNL     1     -46.812 -12.018 -25.922  0.00  0.00    +0.000 OA
BRANCH  18  20
ATOM     20  O   UNL     1     -46.776 -11.545 -28.184  0.00  0.00    +0.000 OA
BRANCH  20  21
ATOM     21  C   UNL     1     -47.061 -12.864 -28.627  0.00  0.00    +0.000 C 
ATOM     22  C   UNL     1     -45.764 -13.617 -28.834  0.00  0.00    +0.000 C 
ENDBRANCH  20  21
ENDBRANCH  18  20
ENDBRANCH  17  18
ENDBRANCH  15  17
ENDBRANCH   2  14
BRANCH   9  23
ATOM     23  C   UNL     1     -46.589  -9.230 -30.995  0.00  0.00    +0.000 C 
BRANCH  23  24
ATOM     24  C   UNL     1     -45.219  -9.901 -30.970  0.00  0.00    +0.000 C 
BRANCH  24  25
ATOM     25  C   UNL     1     -45.246 -11.256 -31.655  0.00  0.00    +0.000 C 
BRANCH  25  27
ATOM     26  C   UNL     1     -45.750 -11.652 -33.766  0.00  0.00    +0.000 C 
ATOM     27  O   UNL     1     -44.738 -11.147 -32.949  0.00  0.00    +0.000 OA
ENDBRANCH  25  27
ENDBRANCH  24  25
ENDBRANCH  23  24
ENDBRANCH   9  23
TORSDOF 9
ENDMDL
