MODEL 1
REMARK VINA RESULT:      -6.3      0.000      0.000
REMARK  Name = ZINC000002099315 CSCC[C@H](NC(=O)Cc1c(C)c2cc3c(C)coc3cc2oc1=O)C(O)=O MCULE-8114226211 MolPort-002-520-341 PubChem-1755356
REMARK  7 active torsions:
REMARK  status: ('A' for Active; 'I' for Inactive)
REMARK    1  A    between atoms: CG_2  and  CB_3
REMARK    2  A    between atoms: CG_2  and  SD_21
REMARK    3  A    between atoms: CB_3  and  CA_4
REMARK    4  A    between atoms: CA_4  and  C_20
REMARK    5  A    between atoms: CA_4  and  N_22
REMARK    6  A    between atoms: C_5  and  C_6
REMARK    7  A    between atoms: C_6  and  C_7
REMARK                            x       y       z     vdW  Elec       q    Type
REMARK                         _______ _______ _______ _____ _____    ______ ____
ROOT
ATOM      1  C   UNK A   0     -47.078  -5.587 -28.453  0.00  0.00    +0.000 A 
ATOM      2  C   UNK A   0     -46.830  -5.823 -27.089  0.00  0.00    +0.000 A 
ATOM      3  C   UNK A   0     -46.376  -7.174 -26.624  0.00  0.00    +0.000 C 
ATOM      4  C   UNK A   0     -47.007  -4.775 -26.172  0.00  0.00    +0.000 A 
ATOM      5  C   UNK A   0     -46.774  -4.952 -24.791  0.00  0.00    +0.000 A 
ATOM      6  C   UNK A   0     -46.977  -3.857 -23.957  0.00  0.00    +0.000 A 
ATOM      7  C   UNK A   0     -47.386  -2.644 -24.431  0.00  0.00    +0.000 A 
ATOM      8  C   UNK A   0     -47.181  -2.388 -22.317  0.00  0.00    +0.000 A 
ATOM      9  C   UNK A   0     -46.841  -3.707 -22.598  0.00  0.00    +0.000 A 
ATOM     10  C   UNK A   0     -46.416  -4.741 -21.616  0.00  0.00    +0.000 C 
ATOM     11  C   UNK A   0     -47.626  -2.427 -25.784  0.00  0.00    +0.000 A 
ATOM     12  C   UNK A   0     -47.435  -3.506 -26.666  0.00  0.00    +0.000 A 
ATOM     13  C   UNK A   0     -47.498  -4.306 -28.855  0.00  0.00    +0.000 A 
ATOM     14  O   UNK A   0     -47.503  -1.782 -23.449  0.00  0.00    +0.000 OA
ATOM     15  O   UNK A   0     -47.656  -3.334 -27.962  0.00  0.00    +0.000 OA
ATOM     16  O   UNK A   0     -47.730  -4.065 -30.071  0.00  0.00    +0.000 OA
ENDROOT
BRANCH   1  17
ATOM     17  C   UNK A   0     -46.931  -6.686 -29.467  0.00  0.00    +0.000 C 
BRANCH  17  18
ATOM     18  C   UNK A   0     -45.888  -6.331 -30.471  0.00  0.00    +0.000 C 
ATOM     19  N   MET A   1     -44.652  -5.763 -30.038  0.00  0.00    +0.000 NA
ATOM     20  O   UNK A   0     -46.095  -6.559 -31.693  0.00  0.00    +0.000 OA
BRANCH  19  21
ATOM     21  CA  MET A   1     -43.585  -5.432 -30.970  0.00  0.00    +0.000 C 
BRANCH  21  22
ATOM     22  C   MET A   1     -42.264  -5.651 -30.314  0.00  0.00    +0.000 C 
ATOM     23  O   MET A   1     -41.092  -5.619 -31.061  0.00  0.00    +0.000 OA
ATOM     24  OXT MET A   1     -42.209  -5.858 -29.075  0.00  0.00    +0.000 OA
ENDBRANCH  21  22
BRANCH  21  25
ATOM     25  CB  MET A   1     -43.708  -3.984 -31.425  0.00  0.00    +0.000 C 
BRANCH  25  26
ATOM     26  CG  MET A   1     -44.115  -3.902 -32.889  0.00  0.00    +0.000 C 
BRANCH  26  28
ATOM     27  CE  MET A   1     -45.220  -1.987 -31.460  0.00  0.00    +0.000 C 
ATOM     28  SD  MET A   1     -45.414  -2.651 -33.137  0.00  0.00    +0.000 S 
ENDBRANCH  26  28
ENDBRANCH  25  26
ENDBRANCH  21  25
ENDBRANCH  19  21
ENDBRANCH  17  18
ENDBRANCH   1  17
TORSDOF 7
ENDMDL
MODEL 2
REMARK VINA RESULT:      -6.1      3.931      7.618
REMARK  Name = ZINC000002099315 CSCC[C@H](NC(=O)Cc1c(C)c2cc3c(C)coc3cc2oc1=O)C(O)=O MCULE-8114226211 MolPort-002-520-341 PubChem-1755356
REMARK  7 active torsions:
REMARK  status: ('A' for Active; 'I' for Inactive)
REMARK    1  A    between atoms: CG_2  and  CB_3
REMARK    2  A    between atoms: CG_2  and  SD_21
REMARK    3  A    between atoms: CB_3  and  CA_4
REMARK    4  A    between atoms: CA_4  and  C_20
REMARK    5  A    between atoms: CA_4  and  N_22
REMARK    6  A    between atoms: C_5  and  C_6
REMARK    7  A    between atoms: C_6  and  C_7
REMARK                            x       y       z     vdW  Elec       q    Type
REMARK                         _______ _______ _______ _____ _____    ______ ____
ROOT
ATOM      1  C   UNK A   0     -45.472  -4.323 -33.657  0.00  0.00    +0.000 A 
ATOM      2  C   UNK A   0     -44.073  -4.414 -33.543  0.00  0.00    +0.000 A 
ATOM      3  C   UNK A   0     -43.388  -5.743 -33.657  0.00  0.00    +0.000 C 
ATOM      4  C   UNK A   0     -43.329  -3.243 -33.328  0.00  0.00    +0.000 A 
ATOM      5  C   UNK A   0     -41.922  -3.272 -33.205  0.00  0.00    +0.000 A 
ATOM      6  C   UNK A   0     -41.269  -2.062 -32.992  0.00  0.00    +0.000 A 
ATOM      7  C   UNK A   0     -41.939  -0.876 -32.901  0.00  0.00    +0.000 A 
ATOM      8  C   UNK A   0     -39.872  -0.382 -32.653  0.00  0.00    +0.000 A 
ATOM      9  C   UNK A   0     -39.938  -1.759 -32.834  0.00  0.00    +0.000 A 
ATOM     10  C   UNK A   0     -38.790  -2.706 -32.851  0.00  0.00    +0.000 C 
ATOM     11  C   UNK A   0     -43.323  -0.803 -33.017  0.00  0.00    +0.000 A 
ATOM     12  C   UNK A   0     -44.027  -2.002 -33.233  0.00  0.00    +0.000 A 
ATOM     13  C   UNK A   0     -46.081  -3.060 -33.549  0.00  0.00    +0.000 A 
ATOM     14  O   UNK A   0     -41.099   0.112 -32.700  0.00  0.00    +0.000 OA
ATOM     15  O   UNK A   0     -45.348  -1.970 -33.346  0.00  0.00    +0.000 OA
ATOM     16  O   UNK A   0     -47.333  -2.947 -33.645  0.00  0.00    +0.000 OA
ENDROOT
BRANCH   1  17
ATOM     17  C   UNK A   0     -46.312  -5.552 -33.857  0.00  0.00    +0.000 C 
BRANCH  17  18
ATOM     18  C   UNK A   0     -46.591  -6.211 -32.549  0.00  0.00    +0.000 C 
ATOM     19  N   MET A   1     -46.363  -5.497 -31.334  0.00  0.00    +0.000 NA
ATOM     20  O   UNK A   0     -47.050  -7.384 -32.526  0.00  0.00    +0.000 OA
BRANCH  19  21
ATOM     21  CA  MET A   1     -46.652  -6.076 -30.032  0.00  0.00    +0.000 C 
BRANCH  21  22
ATOM     22  C   MET A   1     -47.122  -5.008 -29.104  0.00  0.00    +0.000 C 
ATOM     23  O   MET A   1     -47.724  -3.858 -29.600  0.00  0.00    +0.000 OA
ATOM     24  OXT MET A   1     -46.982  -5.153 -27.862  0.00  0.00    +0.000 OA
ENDBRANCH  21  22
BRANCH  21  25
ATOM     25  CB  MET A   1     -45.411  -6.752 -29.464  0.00  0.00    +0.000 C 
BRANCH  25  26
ATOM     26  CG  MET A   1     -44.150  -5.991 -29.843  0.00  0.00    +0.000 C 
BRANCH  26  28
ATOM     27  CE  MET A   1     -43.851  -8.400 -30.863  0.00  0.00    +0.000 C 
ATOM     28  SD  MET A   1     -42.766  -7.132 -30.152  0.00  0.00    +0.000 S 
ENDBRANCH  26  28
ENDBRANCH  25  26
ENDBRANCH  21  25
ENDBRANCH  19  21
ENDBRANCH  17  18
ENDBRANCH   1  17
TORSDOF 7
ENDMDL
MODEL 3
REMARK VINA RESULT:      -6.1      1.637      1.965
REMARK  Name = ZINC000002099315 CSCC[C@H](NC(=O)Cc1c(C)c2cc3c(C)coc3cc2oc1=O)C(O)=O MCULE-8114226211 MolPort-002-520-341 PubChem-1755356
REMARK  7 active torsions:
REMARK  status: ('A' for Active; 'I' for Inactive)
REMARK    1  A    between atoms: CG_2  and  CB_3
REMARK    2  A    between atoms: CG_2  and  SD_21
REMARK    3  A    between atoms: CB_3  and  CA_4
REMARK    4  A    between atoms: CA_4  and  C_20
REMARK    5  A    between atoms: CA_4  and  N_22
REMARK    6  A    between atoms: C_5  and  C_6
REMARK    7  A    between atoms: C_6  and  C_7
REMARK                            x       y       z     vdW  Elec       q    Type
REMARK                         _______ _______ _______ _____ _____    ______ ____
ROOT
ATOM      1  C   UNK A   0     -46.970  -5.313 -27.769  0.00  0.00    +0.000 A 
ATOM      2  C   UNK A   0     -46.789  -5.502 -26.387  0.00  0.00    +0.000 A 
ATOM      3  C   UNK A   0     -46.360  -6.836 -25.854  0.00  0.00    +0.000 C 
ATOM      4  C   UNK A   0     -47.009  -4.423 -25.516  0.00  0.00    +0.000 A 
ATOM      5  C   UNK A   0     -46.845  -4.552 -24.120  0.00  0.00    +0.000 A 
ATOM      6  C   UNK A   0     -47.087  -3.429 -23.335  0.00  0.00    +0.000 A 
ATOM      7  C   UNK A   0     -47.471  -2.233 -23.870  0.00  0.00    +0.000 A 
ATOM      8  C   UNK A   0     -47.368  -1.904 -21.759  0.00  0.00    +0.000 A 
ATOM      9  C   UNK A   0     -47.017  -3.232 -21.978  0.00  0.00    +0.000 A 
ATOM     10  C   UNK A   0     -46.641  -4.231 -20.940  0.00  0.00    +0.000 C 
ATOM     11  C   UNK A   0     -47.645  -2.062 -25.240  0.00  0.00    +0.000 A 
ATOM     12  C   UNK A   0     -47.411  -3.172 -26.073  0.00  0.00    +0.000 A 
ATOM     13  C   UNK A   0     -47.369  -4.047 -28.234  0.00  0.00    +0.000 A 
ATOM     14  O   UNK A   0     -47.635  -1.337 -22.925  0.00  0.00    +0.000 OA
ATOM     15  O   UNK A   0     -47.569  -3.045 -27.384  0.00  0.00    +0.000 OA
ATOM     16  O   UNK A   0     -47.541  -3.848 -29.468  0.00  0.00    +0.000 OA
ENDROOT
BRANCH   1  17
ATOM     17  C   UNK A   0     -46.775  -6.446 -28.735  0.00  0.00    +0.000 C 
BRANCH  17  18
ATOM     18  C   UNK A   0     -45.441  -6.344 -29.395  0.00  0.00    +0.000 C 
ATOM     19  N   MET A   1     -45.341  -5.785 -30.705  0.00  0.00    +0.000 NA
ATOM     20  O   UNK A   0     -44.410  -6.728 -28.782  0.00  0.00    +0.000 OA
BRANCH  19  21
ATOM     21  CA  MET A   1     -44.064  -5.627 -31.381  0.00  0.00    +0.000 C 
BRANCH  21  22
ATOM     22  C   MET A   1     -43.777  -4.176 -31.573  0.00  0.00    +0.000 C 
ATOM     23  O   MET A   1     -42.504  -3.751 -31.934  0.00  0.00    +0.000 OA
ATOM     24  OXT MET A   1     -44.696  -3.332 -31.418  0.00  0.00    +0.000 OA
ENDBRANCH  21  22
BRANCH  21  25
ATOM     25  CB  MET A   1     -44.084  -6.338 -32.728  0.00  0.00    +0.000 C 
BRANCH  25  26
ATOM     26  CG  MET A   1     -45.494  -6.778 -33.094  0.00  0.00    +0.000 C 
BRANCH  26  28
ATOM     27  CE  MET A   1     -47.008  -4.987 -34.290  0.00  0.00    +0.000 C 
ATOM     28  SD  MET A   1     -45.895  -6.322 -34.810  0.00  0.00    +0.000 S 
ENDBRANCH  26  28
ENDBRANCH  25  26
ENDBRANCH  21  25
ENDBRANCH  19  21
ENDBRANCH  17  18
ENDBRANCH   1  17
TORSDOF 7
ENDMDL
