MODEL 1
REMARK VINA RESULT:      -5.9      0.000      0.000
REMARK  Name = ZINC000005207199 MCULE-6774306245 MolPort-002-650-264
REMARK  9 active torsions:
REMARK  status: ('A' for Active; 'I' for Inactive)
REMARK    1  A    between atoms: C_2  and  C_3
REMARK    2  A    between atoms: C_2  and  N_22
REMARK    3  A    between atoms: C_3  and  C_4
REMARK    4  A    between atoms: C_4  and  O_28
REMARK    5  A    between atoms: C_6  and  C_15
REMARK    6  A    between atoms: C_16  and  C_17
REMARK    7  A    between atoms: C_16  and  N_25
REMARK    8  A    between atoms: C_17  and  C_18
REMARK    9  A    between atoms: C_18  and  N_26
REMARK                            x       y       z     vdW  Elec       q    Type
REMARK                         _______ _______ _______ _____ _____    ______ ____
ROOT
ATOM      1  C   UNL     1     -47.056  -4.848 -27.763  0.00  0.00    +0.000 A 
ATOM      2  C   UNL     1     -46.618  -6.684 -28.788  0.00  0.00    +0.000 A 
ATOM      3  C   UNL     1     -46.393  -6.945 -27.430  0.00  0.00    +0.000 A 
ATOM      4  C   UNL     1     -46.686  -5.743 -26.811  0.00  0.00    +0.000 A 
ATOM      5  C   UNL     1     -46.662  -5.366 -25.475  0.00  0.00    +0.000 A 
ATOM      6  C   UNL     1     -47.007  -3.673 -23.849  0.00  0.00    +0.000 A 
ATOM      7  C   UNL     1     -47.367  -2.371 -23.498  0.00  0.00    +0.000 A 
ATOM      8  C   UNL     1     -47.743  -1.472 -24.495  0.00  0.00    +0.000 A 
ATOM      9  C   UNL     1     -47.756  -1.878 -25.828  0.00  0.00    +0.000 A 
ATOM     10  C   UNL     1     -47.394  -3.187 -26.153  0.00  0.00    +0.000 A 
ATOM     11  N   UNL     1     -47.016  -5.398 -28.983  0.00  0.00    +0.000 N 
ATOM     12  N   UNL     1     -47.019  -4.077 -25.154  0.00  0.00    +0.000 N 
ATOM     13  N   UNL     1     -47.410  -3.578 -27.461  0.00  0.00    +0.000 NA
ATOM     14  O   UNL     1     -46.320  -6.193 -24.584  0.00  0.00    +0.000 OA
ENDROOT
BRANCH   2  15
ATOM     15  C   UNL     1     -46.437  -7.692 -29.851  0.00  0.00    +0.000 C 
ATOM     16  N   UNL     1     -45.133  -8.168 -30.187  0.00  0.00    +0.000 NA
ATOM     17  O   UNL     1     -47.444  -8.134 -30.469  0.00  0.00    +0.000 OA
BRANCH  16  18
ATOM     18  C   UNL     1     -44.914  -9.178 -31.210  0.00  0.00    +0.000 C 
BRANCH  18  19
ATOM     19  C   UNL     1     -44.717 -10.540 -30.562  0.00  0.00    +0.000 C 
BRANCH  19  20
ATOM     20  C   UNL     1     -45.999 -11.363 -30.601  0.00  0.00    +0.000 C 
BRANCH  20  24
ATOM     21  C   UNL     1     -46.250 -10.964 -28.156  0.00  0.00    +0.000 A 
ATOM     22  C   UNL     1     -46.797 -11.665 -27.099  0.00  0.00    +0.000 A 
ATOM     23  C   UNL     1     -47.070 -12.829 -28.882  0.00  0.00    +0.000 A 
ATOM     24  N   UNL     1     -46.437 -11.707 -29.257  0.00  0.00    +0.000 N 
ATOM     25  N   UNL     1     -47.308 -12.829 -27.556  0.00  0.00    +0.000 NA
ENDBRANCH  20  24
ENDBRANCH  19  20
ENDBRANCH  18  19
ENDBRANCH  16  18
ENDBRANCH   2  15
BRANCH  11  26
ATOM     26  C   UNL     1     -47.378  -4.739 -30.233  0.00  0.00    +0.000 C 
BRANCH  26  27
ATOM     27  C   UNL     1     -46.204  -3.931 -30.751  0.00  0.00    +0.000 C 
BRANCH  27  28
ATOM     28  C   UNL     1     -45.964  -4.275 -32.206  0.00  0.00    +0.000 C 
BRANCH  28  30
ATOM     29  C   UNL     1     -46.435  -5.639 -33.874  0.00  0.00    +0.000 C 
ATOM     30  O   UNL     1     -46.522  -5.521 -32.487  0.00  0.00    +0.000 OA
ENDBRANCH  28  30
ENDBRANCH  27  28
ENDBRANCH  26  27
ENDBRANCH  11  26
TORSDOF 9
ENDMDL
MODEL 2
REMARK VINA RESULT:      -5.7      2.646      5.218
REMARK  Name = ZINC000005207199 MCULE-6774306245 MolPort-002-650-264
REMARK  9 active torsions:
REMARK  status: ('A' for Active; 'I' for Inactive)
REMARK    1  A    between atoms: C_2  and  C_3
REMARK    2  A    between atoms: C_2  and  N_22
REMARK    3  A    between atoms: C_3  and  C_4
REMARK    4  A    between atoms: C_4  and  O_28
REMARK    5  A    between atoms: C_6  and  C_15
REMARK    6  A    between atoms: C_16  and  C_17
REMARK    7  A    between atoms: C_16  and  N_25
REMARK    8  A    between atoms: C_17  and  C_18
REMARK    9  A    between atoms: C_18  and  N_26
REMARK                            x       y       z     vdW  Elec       q    Type
REMARK                         _______ _______ _______ _____ _____    ______ ____
ROOT
ATOM      1  C   UNL     1     -45.158  -4.637 -30.727  0.00  0.00    +0.000 A 
ATOM      2  C   UNL     1     -45.201  -6.698 -30.127  0.00  0.00    +0.000 A 
ATOM      3  C   UNL     1     -43.929  -6.489 -30.676  0.00  0.00    +0.000 A 
ATOM      4  C   UNL     1     -43.945  -5.157 -31.046  0.00  0.00    +0.000 A 
ATOM      5  C   UNL     1     -42.979  -4.354 -31.637  0.00  0.00    +0.000 A 
ATOM      6  C   UNL     1     -42.360  -2.219 -32.465  0.00  0.00    +0.000 A 
ATOM      7  C   UNL     1     -42.648  -0.878 -32.724  0.00  0.00    +0.000 A 
ATOM      8  C   UNL     1     -43.901  -0.369 -32.386  0.00  0.00    +0.000 A 
ATOM      9  C   UNL     1     -44.852  -1.199 -31.795  0.00  0.00    +0.000 A 
ATOM     10  C   UNL     1     -44.537  -2.536 -31.544  0.00  0.00    +0.000 A 
ATOM     11  N   UNL     1     -45.948  -5.562 -30.168  0.00  0.00    +0.000 N 
ATOM     12  N   UNL     1     -43.287  -3.037 -31.885  0.00  0.00    +0.000 N 
ATOM     13  N   UNL     1     -45.474  -3.342 -30.963  0.00  0.00    +0.000 NA
ATOM     14  O   UNL     1     -41.848  -4.830 -31.937  0.00  0.00    +0.000 OA
ENDROOT
BRANCH   2  15
ATOM     15  C   UNL     1     -45.648  -7.995 -29.581  0.00  0.00    +0.000 C 
ATOM     16  N   UNL     1     -46.386  -8.909 -30.393  0.00  0.00    +0.000 NA
ATOM     17  O   UNL     1     -45.378  -8.295 -28.386  0.00  0.00    +0.000 OA
BRANCH  16  18
ATOM     18  C   UNL     1     -46.824 -10.207 -29.902  0.00  0.00    +0.000 C 
BRANCH  18  19
ATOM     19  C   UNL     1     -45.774 -11.262 -30.214  0.00  0.00    +0.000 C 
BRANCH  19  20
ATOM     20  C   UNL     1     -46.352 -12.668 -30.104  0.00  0.00    +0.000 C 
BRANCH  20  24
ATOM     21  C   UNL     1     -45.312 -14.097 -28.350  0.00  0.00    +0.000 A 
ATOM     22  C   UNL     1     -45.533 -14.316 -27.004  0.00  0.00    +0.000 A 
ATOM     23  C   UNL     1     -46.957 -12.861 -27.685  0.00  0.00    +0.000 A 
ATOM     24  N   UNL     1     -46.208 -13.184 -28.751  0.00  0.00    +0.000 N 
ATOM     25  N   UNL     1     -46.561 -13.542 -26.593  0.00  0.00    +0.000 NA
ENDBRANCH  20  24
ENDBRANCH  19  20
ENDBRANCH  18  19
ENDBRANCH  16  18
ENDBRANCH   2  15
BRANCH  11  26
ATOM     26  C   UNL     1     -47.303  -5.348 -29.674  0.00  0.00    +0.000 C 
BRANCH  26  27
ATOM     27  C   UNL     1     -47.275  -4.441 -28.459  0.00  0.00    +0.000 C 
BRANCH  27  28
ATOM     28  C   UNL     1     -46.716  -5.204 -27.277  0.00  0.00    +0.000 C 
BRANCH  28  30
ATOM     29  C   UNL     1     -47.483  -3.271 -26.543  0.00  0.00    +0.000 C 
ATOM     30  O   UNL     1     -46.949  -4.484 -26.107  0.00  0.00    +0.000 OA
ENDBRANCH  28  30
ENDBRANCH  27  28
ENDBRANCH  26  27
ENDBRANCH  11  26
TORSDOF 9
ENDMDL
MODEL 3
REMARK VINA RESULT:      -5.7      2.334      5.700
REMARK  Name = ZINC000005207199 MCULE-6774306245 MolPort-002-650-264
REMARK  9 active torsions:
REMARK  status: ('A' for Active; 'I' for Inactive)
REMARK    1  A    between atoms: C_2  and  C_3
REMARK    2  A    between atoms: C_2  and  N_22
REMARK    3  A    between atoms: C_3  and  C_4
REMARK    4  A    between atoms: C_4  and  O_28
REMARK    5  A    between atoms: C_6  and  C_15
REMARK    6  A    between atoms: C_16  and  C_17
REMARK    7  A    between atoms: C_16  and  N_25
REMARK    8  A    between atoms: C_17  and  C_18
REMARK    9  A    between atoms: C_18  and  N_26
REMARK                            x       y       z     vdW  Elec       q    Type
REMARK                         _______ _______ _______ _____ _____    ______ ____
ROOT
ATOM      1  C   UNL     1     -46.650  -5.710 -26.178  0.00  0.00    +0.000 A 
ATOM      2  C   UNL     1     -46.614  -6.271 -28.250  0.00  0.00    +0.000 A 
ATOM      3  C   UNL     1     -47.006  -4.926 -28.228  0.00  0.00    +0.000 A 
ATOM      4  C   UNL     1     -47.014  -4.608 -26.882  0.00  0.00    +0.000 A 
ATOM      5  C   UNL     1     -47.310  -3.425 -26.217  0.00  0.00    +0.000 A 
ATOM      6  C   UNL     1     -47.508  -2.262 -24.160  0.00  0.00    +0.000 A 
ATOM      7  C   UNL     1     -47.425  -2.219 -22.767  0.00  0.00    +0.000 A 
ATOM      8  C   UNL     1     -47.049  -3.365 -22.068  0.00  0.00    +0.000 A 
ATOM      9  C   UNL     1     -46.758  -4.538 -22.762  0.00  0.00    +0.000 A 
ATOM     10  C   UNL     1     -46.846  -4.554 -24.155  0.00  0.00    +0.000 A 
ATOM     11  N   UNL     1     -46.405  -6.744 -26.992  0.00  0.00    +0.000 N 
ATOM     12  N   UNL     1     -47.224  -3.409 -24.845  0.00  0.00    +0.000 N 
ATOM     13  N   UNL     1     -46.559  -5.707 -24.828  0.00  0.00    +0.000 NA
ATOM     14  O   UNL     1     -47.650  -2.396 -26.866  0.00  0.00    +0.000 OA
ENDROOT
BRANCH   2  15
ATOM     15  C   UNL     1     -46.458  -7.052 -29.493  0.00  0.00    +0.000 C 
ATOM     16  N   UNL     1     -45.247  -6.983 -30.247  0.00  0.00    +0.000 NA
ATOM     17  O   UNL     1     -47.403  -7.786 -29.892  0.00  0.00    +0.000 OA
BRANCH  16  18
ATOM     18  C   UNL     1     -45.042  -7.754 -31.463  0.00  0.00    +0.000 C 
BRANCH  18  19
ATOM     19  C   UNL     1     -44.624  -6.833 -32.599  0.00  0.00    +0.000 C 
BRANCH  19  20
ATOM     20  C   UNL     1     -45.812  -6.047 -33.141  0.00  0.00    +0.000 C 
BRANCH  20  24
ATOM     21  C   UNL     1     -46.372  -3.628 -33.326  0.00  0.00    +0.000 A 
ATOM     22  C   UNL     1     -45.646  -2.461 -33.463  0.00  0.00    +0.000 A 
ATOM     23  C   UNL     1     -44.262  -4.099 -33.369  0.00  0.00    +0.000 A 
ATOM     24  N   UNL     1     -45.488  -4.634 -33.265  0.00  0.00    +0.000 N 
ATOM     25  N   UNL     1     -44.328  -2.760 -33.489  0.00  0.00    +0.000 NA
ENDBRANCH  20  24
ENDBRANCH  19  20
ENDBRANCH  18  19
ENDBRANCH  16  18
ENDBRANCH   2  15
BRANCH  11  26
ATOM     26  C   UNL     1     -45.962  -8.072 -26.583  0.00  0.00    +0.000 C 
BRANCH  26  27
ATOM     27  C   UNL     1     -47.151  -9.009 -26.490  0.00  0.00    +0.000 C 
BRANCH  27  28
ATOM     28  C   UNL     1     -46.662 -10.409 -26.186  0.00  0.00    +0.000 C 
BRANCH  28  30
ATOM     29  C   UNL     1     -46.919 -12.254 -27.368  0.00  0.00    +0.000 C 
ATOM     30  O   UNL     1     -47.623 -11.335 -26.590  0.00  0.00    +0.000 OA
ENDBRANCH  28  30
ENDBRANCH  27  28
ENDBRANCH  26  27
ENDBRANCH  11  26
TORSDOF 9
ENDMDL
