MODEL 1
REMARK VINA RESULT:      -7.5      0.000      0.000
REMARK  Name = ZINC000006281134 ZINC06281134 PubChem-40601604
REMARK  8 active torsions:
REMARK  status: ('A' for Active; 'I' for Inactive)
REMARK    1  A    between atoms: C_5  and  C_6
REMARK    2  A    between atoms: C_7  and  C_8
REMARK    3  A    between atoms: C_7  and  N_31
REMARK    4  A    between atoms: C_9  and  C_10
REMARK    5  A    between atoms: C_9  and  N_33
REMARK    6  A    between atoms: C_11  and  C_12
REMARK    7  A    between atoms: C_11  and  N_34
REMARK    8  A    between atoms: C_16  and  N_33
REMARK                            x       y       z     vdW  Elec       q    Type
REMARK                         _______ _______ _______ _____ _____    ______ ____
ROOT
ATOM      1  C   UNL     1     -44.869  -6.851 -29.267  0.00  0.00    +0.000 C 
ATOM      2  O   UNL     1     -43.867  -6.741 -28.510  0.00  0.00    +0.000 OA
ATOM      3  N   UNL     1     -46.205  -6.714 -28.739  0.00  0.00    +0.000 N 
ENDROOT
BRANCH   3   4
ATOM      4  C   UNL     1     -46.469  -6.036 -27.489  0.00  0.00    +0.000 A 
ATOM      5  C   UNL     1     -46.791  -4.670 -27.460  0.00  0.00    +0.000 A 
ATOM      6  C   UNL     1     -47.057  -4.035 -26.247  0.00  0.00    +0.000 A 
ATOM      7  C   UNL     1     -47.363  -2.673 -26.207  0.00  0.00    +0.000 A 
ATOM      8  C   UNL     1     -47.617  -2.051 -24.980  0.00  0.00    +0.000 A 
ATOM      9  C   UNL     1     -47.564  -2.792 -23.794  0.00  0.00    +0.000 A 
ATOM     10  C   UNL     1     -47.258  -4.157 -23.829  0.00  0.00    +0.000 A 
ATOM     11  C   UNL     1     -47.002  -4.781 -25.052  0.00  0.00    +0.000 A 
ATOM     12  C   UNL     1     -46.438  -6.740 -26.272  0.00  0.00    +0.000 A 
ATOM     13  N   UNL     1     -46.697  -6.104 -25.096  0.00  0.00    +0.000 NA
ENDBRANCH   3   4
BRANCH   1  14
ATOM     14  C   UNL     1     -44.648  -7.186 -30.711  0.00  0.00    +0.000 C 
BRANCH  14  18
ATOM     15  C   UNL     1     -44.299  -4.042 -32.237  0.00  0.00    +0.000 A 
ATOM     16  N   UNL     1     -45.025  -4.669 -33.187  0.00  0.00    +0.000 NA
ATOM     17  N   UNL     1     -45.232  -5.884 -32.706  0.00  0.00    +0.000 NA
ATOM     18  N   UNL     1     -44.664  -5.975 -31.517  0.00  0.00    +0.000 N 
ATOM     19  N   UNL     1     -44.060  -4.849 -31.186  0.00  0.00    +0.000 NA
BRANCH  15  24
ATOM     20  C   UNL     1     -41.294  -0.192 -32.091  0.00  0.00    +0.000 C 
ATOM     21  C   UNL     1     -42.535  -0.989 -32.270  0.00  0.00    +0.000 A 
ATOM     22  C   UNL     1     -43.762  -0.476 -32.642  0.00  0.00    +0.000 A 
ATOM     23  C   UNL     1     -44.614  -1.569 -32.685  0.00  0.00    +0.000 A 
ATOM     24  C   UNL     1     -43.833  -2.657 -32.333  0.00  0.00    +0.000 A 
ATOM     25  O   UNL     1     -42.601  -2.284 -32.092  0.00  0.00    +0.000 OA
ENDBRANCH  15  24
ENDBRANCH  14  18
ENDBRANCH   1  14
BRANCH   3  26
ATOM     26  C   UNL     1     -47.318  -7.320 -29.472  0.00  0.00    +0.000 C 
BRANCH  26  27
ATOM     27  C   UNL     1     -47.179  -8.806 -29.491  0.00  0.00    +0.000 C 
ATOM     28  O   UNL     1     -47.463  -9.450 -30.536  0.00  0.00    +0.000 OA
ATOM     29  N   UNL     1     -46.766  -9.487 -28.307  0.00  0.00    +0.000 NA
BRANCH  29  30
ATOM     30  C   UNL     1     -46.642 -10.935 -28.254  0.00  0.00    +0.000 C 
BRANCH  30  31
ATOM     31  C   UNL     1     -45.913 -11.340 -26.985  0.00  0.00    +0.000 C 
ATOM     32  C   UNL     1     -44.778 -12.277 -27.326  0.00  0.00    +0.000 C 
ATOM     33  C   UNL     1     -44.817 -13.303 -26.232  0.00  0.00    +0.000 C 
ATOM     34  C   UNL     1     -45.968 -12.858 -25.358  0.00  0.00    +0.000 C 
ATOM     35  O   UNL     1     -46.787 -12.004 -26.109  0.00  0.00    +0.000 OA
ENDBRANCH  30  31
ENDBRANCH  29  30
ENDBRANCH  26  27
ENDBRANCH   3  26
TORSDOF 8
ENDMDL
MODEL 2
REMARK VINA RESULT:      -7.5      1.172      1.478
REMARK  Name = ZINC000006281134 ZINC06281134 PubChem-40601604
REMARK  8 active torsions:
REMARK  status: ('A' for Active; 'I' for Inactive)
REMARK    1  A    between atoms: C_5  and  C_6
REMARK    2  A    between atoms: C_7  and  C_8
REMARK    3  A    between atoms: C_7  and  N_31
REMARK    4  A    between atoms: C_9  and  C_10
REMARK    5  A    between atoms: C_9  and  N_33
REMARK    6  A    between atoms: C_11  and  C_12
REMARK    7  A    between atoms: C_11  and  N_34
REMARK    8  A    between atoms: C_16  and  N_33
REMARK                            x       y       z     vdW  Elec       q    Type
REMARK                         _______ _______ _______ _____ _____    ______ ____
ROOT
ATOM      1  C   UNL     1     -44.897  -6.680 -29.280  0.00  0.00    +0.000 C 
ATOM      2  O   UNL     1     -43.891  -6.565 -28.529  0.00  0.00    +0.000 OA
ATOM      3  N   UNL     1     -46.230  -6.559 -28.743  0.00  0.00    +0.000 N 
ENDROOT
BRANCH   3   4
ATOM      4  C   UNL     1     -46.494  -5.891 -27.487  0.00  0.00    +0.000 A 
ATOM      5  C   UNL     1     -46.819  -4.527 -27.447  0.00  0.00    +0.000 A 
ATOM      6  C   UNL     1     -47.084  -3.901 -26.229  0.00  0.00    +0.000 A 
ATOM      7  C   UNL     1     -47.394  -2.539 -26.179  0.00  0.00    +0.000 A 
ATOM      8  C   UNL     1     -47.646  -1.928 -24.946  0.00  0.00    +0.000 A 
ATOM      9  C   UNL     1     -47.588  -2.677 -23.766  0.00  0.00    +0.000 A 
ATOM     10  C   UNL     1     -47.278  -4.041 -23.811  0.00  0.00    +0.000 A 
ATOM     11  C   UNL     1     -47.024  -4.656 -25.040  0.00  0.00    +0.000 A 
ATOM     12  C   UNL     1     -46.457  -6.603 -26.275  0.00  0.00    +0.000 A 
ATOM     13  N   UNL     1     -46.715  -5.977 -25.094  0.00  0.00    +0.000 NA
ENDBRANCH   3   4
BRANCH   1  14
ATOM     14  C   UNL     1     -44.681  -7.004 -30.727  0.00  0.00    +0.000 C 
BRANCH  14  18
ATOM     15  C   UNL     1     -44.323  -3.896 -32.321  0.00  0.00    +0.000 A 
ATOM     16  N   UNL     1     -45.266  -4.443 -33.115  0.00  0.00    +0.000 NA
ATOM     17  N   UNL     1     -45.496  -5.637 -32.593  0.00  0.00    +0.000 NA
ATOM     18  N   UNL     1     -44.730  -5.792 -31.528  0.00  0.00    +0.000 N 
ATOM     19  N   UNL     1     -43.972  -4.730 -31.323  0.00  0.00    +0.000 NA
BRANCH  15  24
ATOM     20  C   UNL     1     -41.205  -0.147 -31.999  0.00  0.00    +0.000 C 
ATOM     21  C   UNL     1     -42.405  -0.937 -32.376  0.00  0.00    +0.000 A 
ATOM     22  C   UNL     1     -43.452  -0.472 -33.148  0.00  0.00    +0.000 A 
ATOM     23  C   UNL     1     -44.335  -1.536 -33.241  0.00  0.00    +0.000 A 
ATOM     24  C   UNL     1     -43.752  -2.560 -32.514  0.00  0.00    +0.000 A 
ATOM     25  O   UNL     1     -42.606  -2.177 -32.011  0.00  0.00    +0.000 OA
ENDBRANCH  15  24
ENDBRANCH  14  18
ENDBRANCH   1  14
BRANCH   3  26
ATOM     26  C   UNL     1     -47.343  -7.171 -29.472  0.00  0.00    +0.000 C 
BRANCH  26  27
ATOM     27  C   UNL     1     -47.179  -8.655 -29.519  0.00  0.00    +0.000 C 
ATOM     28  O   UNL     1     -47.466  -9.285 -30.571  0.00  0.00    +0.000 OA
ATOM     29  N   UNL     1     -46.738  -9.348 -28.353  0.00  0.00    +0.000 NA
BRANCH  29  30
ATOM     30  C   UNL     1     -46.588 -10.795 -28.327  0.00  0.00    +0.000 C 
BRANCH  30  31
ATOM     31  C   UNL     1     -45.118 -11.159 -28.429  0.00  0.00    +0.000 C 
ATOM     32  C   UNL     1     -44.302 -10.235 -27.556  0.00  0.00    +0.000 C 
ATOM     33  C   UNL     1     -43.081  -9.948 -28.380  0.00  0.00    +0.000 C 
ATOM     34  C   UNL     1     -43.304 -10.738 -29.649  0.00  0.00    +0.000 C 
ATOM     35  O   UNL     1     -44.672 -11.025 -29.754  0.00  0.00    +0.000 OA
ENDBRANCH  30  31
ENDBRANCH  29  30
ENDBRANCH  26  27
ENDBRANCH   3  26
TORSDOF 8
ENDMDL
MODEL 3
REMARK VINA RESULT:      -7.3      8.511     13.386
REMARK  Name = ZINC000006281134 ZINC06281134 PubChem-40601604
REMARK  8 active torsions:
REMARK  status: ('A' for Active; 'I' for Inactive)
REMARK    1  A    between atoms: C_5  and  C_6
REMARK    2  A    between atoms: C_7  and  C_8
REMARK    3  A    between atoms: C_7  and  N_31
REMARK    4  A    between atoms: C_9  and  C_10
REMARK    5  A    between atoms: C_9  and  N_33
REMARK    6  A    between atoms: C_11  and  C_12
REMARK    7  A    between atoms: C_11  and  N_34
REMARK    8  A    between atoms: C_16  and  N_33
REMARK                            x       y       z     vdW  Elec       q    Type
REMARK                         _______ _______ _______ _____ _____    ______ ____
ROOT
ATOM      1  C   UNL     1     -44.256 -18.486 -25.522  0.00  0.00    +0.000 C 
ATOM      2  O   UNL     1     -45.340 -18.824 -26.070  0.00  0.00    +0.000 OA
ATOM      3  N   UNL     1     -43.702 -17.173 -25.743  0.00  0.00    +0.000 N 
ENDROOT
BRANCH   3   4
ATOM      4  C   UNL     1     -44.511 -16.066 -26.204  0.00  0.00    +0.000 A 
ATOM      5  C   UNL     1     -44.348 -15.535 -27.492  0.00  0.00    +0.000 A 
ATOM      6  C   UNL     1     -45.146 -14.477 -27.926  0.00  0.00    +0.000 A 
ATOM      7  C   UNL     1     -44.979 -13.933 -29.202  0.00  0.00    +0.000 A 
ATOM      8  C   UNL     1     -45.783 -12.866 -29.614  0.00  0.00    +0.000 A 
ATOM      9  C   UNL     1     -46.752 -12.342 -28.750  0.00  0.00    +0.000 A 
ATOM     10  C   UNL     1     -46.923 -12.884 -27.471  0.00  0.00    +0.000 A 
ATOM     11  C   UNL     1     -46.121 -13.949 -27.055  0.00  0.00    +0.000 A 
ATOM     12  C   UNL     1     -45.504 -15.512 -25.376  0.00  0.00    +0.000 A 
ATOM     13  N   UNL     1     -46.274 -14.477 -25.813  0.00  0.00    +0.000 NA
ENDBRANCH   3   4
BRANCH   1  14
ATOM     14  C   UNL     1     -43.527 -19.494 -24.687  0.00  0.00    +0.000 C 
BRANCH  14  18
ATOM     15  C   UNL     1     -44.744 -18.670 -21.497  0.00  0.00    +0.000 A 
ATOM     16  N   UNL     1     -43.905 -19.673 -21.161  0.00  0.00    +0.000 NA
ATOM     17  N   UNL     1     -43.368 -20.062 -22.306  0.00  0.00    +0.000 NA
ATOM     18  N   UNL     1     -43.857 -19.317 -23.281  0.00  0.00    +0.000 N 
ATOM     19  N   UNL     1     -44.729 -18.438 -22.823  0.00  0.00    +0.000 NA
BRANCH  15  24
ATOM     20  C   UNL     1     -46.534 -14.911 -18.939  0.00  0.00    +0.000 C 
ATOM     21  C   UNL     1     -46.341 -16.299 -19.433  0.00  0.00    +0.000 A 
ATOM     22  C   UNL     1     -47.047 -17.403 -18.996  0.00  0.00    +0.000 A 
ATOM     23  C   UNL     1     -46.540 -18.469 -19.723  0.00  0.00    +0.000 A 
ATOM     24  C   UNL     1     -45.565 -17.924 -20.541  0.00  0.00    +0.000 A 
ATOM     25  O   UNL     1     -45.468 -16.633 -20.348  0.00  0.00    +0.000 OA
ENDBRANCH  15  24
ENDBRANCH  14  18
ENDBRANCH   1  14
BRANCH   3  26
ATOM     26  C   UNL     1     -42.266 -16.969 -25.538  0.00  0.00    +0.000 C 
BRANCH  26  27
ATOM     27  C   UNL     1     -42.034 -15.874 -24.550  0.00  0.00    +0.000 C 
ATOM     28  O   UNL     1     -42.321 -16.051 -23.337  0.00  0.00    +0.000 OA
ATOM     29  N   UNL     1     -41.526 -14.619 -25.002  0.00  0.00    +0.000 NA
BRANCH  29  30
ATOM     30  C   UNL     1     -41.308 -13.504 -24.093  0.00  0.00    +0.000 C 
BRANCH  30  31
ATOM     31  C   UNL     1     -41.789 -12.217 -24.739  0.00  0.00    +0.000 C 
ATOM     32  C   UNL     1     -43.145 -12.437 -25.366  0.00  0.00    +0.000 C 
ATOM     33  C   UNL     1     -43.071 -11.679 -26.659  0.00  0.00    +0.000 C 
ATOM     34  C   UNL     1     -41.680 -11.088 -26.654  0.00  0.00    +0.000 C 
ATOM     35  O   UNL     1     -40.896 -11.812 -25.745  0.00  0.00    +0.000 OA
ENDBRANCH  30  31
ENDBRANCH  29  30
ENDBRANCH  26  27
ENDBRANCH   3  26
TORSDOF 8
ENDMDL
