MODEL 1
REMARK VINA RESULT:      -6.8      0.000      0.000
REMARK  Name = ZINC000096181314 ZINC96181314 PubChem-97457186
REMARK  3 active torsions:
REMARK  status: ('A' for Active; 'I' for Inactive)
REMARK    1  A    between atoms: C_5  and  C_8
REMARK    2  A    between atoms: C_9  and  C_13
REMARK    3  A    between atoms: C_14  and  N_23
REMARK                            x       y       z     vdW  Elec       q    Type
REMARK                         _______ _______ _______ _____ _____    ______ ____
ROOT
ATOM      1  C   UNL     1     -46.853  -6.010 -26.671  0.00  0.00    +0.000 C 
ATOM      2  C   UNL     1     -45.722  -5.736 -27.681  0.00  0.00    +0.000 C 
ATOM      3  C   UNL     1     -44.727  -6.901 -27.595  0.00  0.00    +0.000 C 
ATOM      4  C   UNL     1     -45.284  -7.742 -26.518  0.00  0.00    +0.000 C 
ATOM      5  C   UNL     1     -47.365  -7.963 -25.088  0.00  0.00    +0.000 C 
ATOM      6  O   UNL     1     -44.762  -8.821 -26.132  0.00  0.00    +0.000 OA
ATOM      7  N   UNL     1     -46.477  -7.223 -25.971  0.00  0.00    +0.000 N 
ENDROOT
BRANCH   1  12
ATOM      8  C   UNL     1     -47.442  -1.525 -23.065  0.00  0.00    +0.000 C 
ATOM      9  C   UNL     1     -47.291  -2.682 -23.984  0.00  0.00    +0.000 A 
ATOM     10  C   UNL     1     -47.405  -2.497 -25.365  0.00  0.00    +0.000 A 
ATOM     11  C   UNL     1     -47.263  -3.584 -26.232  0.00  0.00    +0.000 A 
ATOM     12  C   UNL     1     -47.009  -4.862 -25.721  0.00  0.00    +0.000 A 
ATOM     13  C   UNL     1     -46.891  -5.044 -24.334  0.00  0.00    +0.000 A 
ATOM     14  C   UNL     1     -47.034  -3.955 -23.469  0.00  0.00    +0.000 A 
ENDBRANCH   1  12
BRANCH   2  15
ATOM     15  C   UNL     1     -46.271  -5.608 -29.063  0.00  0.00    +0.000 C 
ATOM     16  O   UNL     1     -47.335  -6.215 -29.354  0.00  0.00    +0.000 OA
ATOM     17  N   UNL     1     -45.586  -4.803 -30.034  0.00  0.00    +0.000 NA
BRANCH  17  18
ATOM     18  C   UNL     1     -45.972  -4.585 -31.398  0.00  0.00    +0.000 A 
ATOM     19  C   UNL     1     -46.431  -3.338 -31.845  0.00  0.00    +0.000 A 
ATOM     20  C   UNL     1     -46.796  -3.177 -33.182  0.00  0.00    +0.000 A 
ATOM     21  C   UNL     1     -46.702  -4.256 -34.061  0.00  0.00    +0.000 A 
ATOM     22  C   UNL     1     -46.241  -5.485 -33.585  0.00  0.00    +0.000 A 
ATOM     23  C   UNL     1     -46.134  -6.646 -34.506  0.00  0.00    +0.000 C 
ATOM     24  N   UNL     1     -45.890  -5.621 -32.277  0.00  0.00    +0.000 NA
ENDBRANCH  17  18
ENDBRANCH   2  15
TORSDOF 3
ENDMDL
MODEL 2
REMARK VINA RESULT:      -6.8      1.856      2.556
REMARK  Name = ZINC000096181314 ZINC96181314 PubChem-97457186
REMARK  3 active torsions:
REMARK  status: ('A' for Active; 'I' for Inactive)
REMARK    1  A    between atoms: C_5  and  C_8
REMARK    2  A    between atoms: C_9  and  C_13
REMARK    3  A    between atoms: C_14  and  N_23
REMARK                            x       y       z     vdW  Elec       q    Type
REMARK                         _______ _______ _______ _____ _____    ______ ____
ROOT
ATOM      1  C   UNL     1     -45.969  -6.695 -28.118  0.00  0.00    +0.000 C 
ATOM      2  C   UNL     1     -44.507  -6.392 -28.499  0.00  0.00    +0.000 C 
ATOM      3  C   UNL     1     -43.751  -7.726 -28.548  0.00  0.00    +0.000 C 
ATOM      4  C   UNL     1     -44.773  -8.708 -28.140  0.00  0.00    +0.000 C 
ATOM      5  C   UNL     1     -47.263  -8.868 -27.695  0.00  0.00    +0.000 C 
ATOM      6  O   UNL     1     -44.559  -9.946 -28.056  0.00  0.00    +0.000 OA
ATOM      7  N   UNL     1     -46.027  -8.122 -27.866  0.00  0.00    +0.000 N 
ENDROOT
BRANCH   1  12
ATOM      8  C   UNL     1     -47.549  -3.609 -23.486  0.00  0.00    +0.000 C 
ATOM      9  C   UNL     1     -47.142  -4.409 -24.671  0.00  0.00    +0.000 A 
ATOM     10  C   UNL     1     -47.370  -3.914 -25.959  0.00  0.00    +0.000 A 
ATOM     11  C   UNL     1     -46.987  -4.665 -27.074  0.00  0.00    +0.000 A 
ATOM     12  C   UNL     1     -46.377  -5.913 -26.906  0.00  0.00    +0.000 A 
ATOM     13  C   UNL     1     -46.146  -6.404 -25.611  0.00  0.00    +0.000 A 
ATOM     14  C   UNL     1     -46.530  -5.653 -24.497  0.00  0.00    +0.000 A 
ENDBRANCH   1  12
BRANCH   2  15
ATOM     15  C   UNL     1     -44.441  -5.695 -29.818  0.00  0.00    +0.000 C 
ATOM     16  O   UNL     1     -43.619  -6.101 -30.680  0.00  0.00    +0.000 OA
ATOM     17  N   UNL     1     -45.307  -4.581 -30.083  0.00  0.00    +0.000 NA
BRANCH  17  18
ATOM     18  C   UNL     1     -45.361  -3.802 -31.285  0.00  0.00    +0.000 A 
ATOM     19  C   UNL     1     -46.047  -4.249 -32.424  0.00  0.00    +0.000 A 
ATOM     20  C   UNL     1     -46.070  -3.454 -33.571  0.00  0.00    +0.000 A 
ATOM     21  C   UNL     1     -45.413  -2.223 -33.575  0.00  0.00    +0.000 A 
ATOM     22  C   UNL     1     -44.739  -1.807 -32.425  0.00  0.00    +0.000 A 
ATOM     23  C   UNL     1     -44.033  -0.500 -32.411  0.00  0.00    +0.000 C 
ATOM     24  N   UNL     1     -44.729  -2.597 -31.317  0.00  0.00    +0.000 NA
ENDBRANCH  17  18
ENDBRANCH   2  15
TORSDOF 3
ENDMDL
MODEL 3
REMARK VINA RESULT:      -6.6      2.775      7.606
REMARK  Name = ZINC000096181314 ZINC96181314 PubChem-97457186
REMARK  3 active torsions:
REMARK  status: ('A' for Active; 'I' for Inactive)
REMARK    1  A    between atoms: C_5  and  C_8
REMARK    2  A    between atoms: C_9  and  C_13
REMARK    3  A    between atoms: C_14  and  N_23
REMARK                            x       y       z     vdW  Elec       q    Type
REMARK                         _______ _______ _______ _____ _____    ______ ____
ROOT
ATOM      1  C   UNL     1     -44.924  -4.723 -32.686  0.00  0.00    +0.000 C 
ATOM      2  C   UNL     1     -46.372  -4.330 -32.334  0.00  0.00    +0.000 C 
ATOM      3  C   UNL     1     -47.289  -4.905 -33.422  0.00  0.00    +0.000 C 
ATOM      4  C   UNL     1     -46.342  -5.533 -34.364  0.00  0.00    +0.000 C 
ATOM      5  C   UNL     1     -43.889  -6.139 -34.557  0.00  0.00    +0.000 C 
ATOM      6  O   UNL     1     -46.695  -6.136 -35.412  0.00  0.00    +0.000 OA
ATOM      7  N   UNL     1     -44.995  -5.405 -33.963  0.00  0.00    +0.000 N 
ENDROOT
BRANCH   1  12
ATOM      8  C   UNL     1     -41.490  -0.074 -32.948  0.00  0.00    +0.000 C 
ATOM      9  C   UNL     1     -42.378  -1.264 -32.886  0.00  0.00    +0.000 A 
ATOM     10  C   UNL     1     -41.892  -2.473 -32.378  0.00  0.00    +0.000 A 
ATOM     11  C   UNL     1     -42.726  -3.593 -32.318  0.00  0.00    +0.000 A 
ATOM     12  C   UNL     1     -44.048  -3.510 -32.768  0.00  0.00    +0.000 A 
ATOM     13  C   UNL     1     -44.534  -2.294 -33.274  0.00  0.00    +0.000 A 
ATOM     14  C   UNL     1     -43.699  -1.175 -33.334  0.00  0.00    +0.000 A 
ENDBRANCH   1  12
BRANCH   2  15
ATOM     15  C   UNL     1     -46.748  -4.859 -30.990  0.00  0.00    +0.000 C 
ATOM     16  O   UNL     1     -47.557  -5.821 -30.918  0.00  0.00    +0.000 OA
ATOM     17  N   UNL     1     -46.189  -4.268 -29.806  0.00  0.00    +0.000 NA
BRANCH  17  18
ATOM     18  C   UNL     1     -46.453  -4.648 -28.449  0.00  0.00    +0.000 A 
ATOM     19  C   UNL     1     -47.317  -3.907 -27.630  0.00  0.00    +0.000 A 
ATOM     20  C   UNL     1     -47.541  -4.317 -26.315  0.00  0.00    +0.000 A 
ATOM     21  C   UNL     1     -46.904  -5.458 -25.827  0.00  0.00    +0.000 A 
ATOM     22  C   UNL     1     -46.050  -6.174 -26.667  0.00  0.00    +0.000 A 
ATOM     23  C   UNL     1     -45.362  -7.391 -26.165  0.00  0.00    +0.000 C 
ATOM     24  N   UNL     1     -45.845  -5.757 -27.946  0.00  0.00    +0.000 NA
ENDBRANCH  17  18
ENDBRANCH   2  15
TORSDOF 3
ENDMDL
