MODEL 1
REMARK VINA RESULT:      -6.3      0.000      0.000
REMARK  Name = ZINC000096182884 ZINC96182884 PubChem-97458176
REMARK  3 active torsions:
REMARK  status: ('A' for Active; 'I' for Inactive)
REMARK    1  A    between atoms: C_2  and  C_13
REMARK    2  A    between atoms: C_3  and  C_6
REMARK    3  A    between atoms: C_7  and  N_20
REMARK                            x       y       z     vdW  Elec       q    Type
REMARK                         _______ _______ _______ _____ _____    ______ ____
ROOT
ATOM      1  C   UNL     1     -43.933  -6.978 -28.505  0.00  0.00    +0.000 C 
ATOM      2  C   UNL     1     -45.453  -6.922 -30.516  0.00  0.00    +0.000 C 
ATOM      3  C   UNL     1     -46.656  -6.147 -31.091  0.00  0.00    +0.000 C 
ATOM      4  C   UNL     1     -47.323  -5.237 -29.062  0.00  0.00    +0.000 C 
ATOM      5  C   UNL     1     -46.182  -5.885 -28.349  0.00  0.00    +0.000 C 
ATOM      6  N   UNL     1     -45.185  -6.565 -29.119  0.00  0.00    +0.000 N 
ATOM      7  O   UNL     1     -47.728  -6.011 -30.170  0.00  0.00    +0.000 OA
ATOM      8  O   UNL     1     -46.095  -5.809 -27.095  0.00  0.00    +0.000 OA
ENDROOT
BRANCH   2   9
ATOM      9  C   UNL     1     -45.659  -8.400 -30.659  0.00  0.00    +0.000 A 
ATOM     10  C   UNL     1     -44.897  -9.107 -31.595  0.00  0.00    +0.000 A 
ATOM     11  C   UNL     1     -45.067 -10.487 -31.740  0.00  0.00    +0.000 A 
ATOM     12  C   UNL     1     -45.998 -11.165 -30.947  0.00  0.00    +0.000 A 
ATOM     13  C   UNL     1     -46.761 -10.463 -30.010  0.00  0.00    +0.000 A 
ATOM     14  C   UNL     1     -46.591  -9.084 -29.864  0.00  0.00    +0.000 A 
ATOM     15  F   UNL     1     -46.162 -12.502 -31.090  0.00  0.00    +0.000 F 
ENDBRANCH   2   9
BRANCH   3  16
ATOM     16  C   UNL     1     -46.269  -4.867 -31.771  0.00  0.00    +0.000 C 
ATOM     17  N   UNL     1     -44.984  -4.278 -31.524  0.00  0.00    +0.000 NA
ATOM     18  O   UNL     1     -47.082  -4.335 -32.573  0.00  0.00    +0.000 OA
BRANCH  17  19
ATOM     19  C   UNL     1     -44.468  -3.069 -32.094  0.00  0.00    +0.000 A 
ATOM     20  C   UNL     1     -43.588  -3.078 -33.188  0.00  0.00    +0.000 A 
ATOM     21  C   UNL     1     -43.107  -1.877 -33.719  0.00  0.00    +0.000 A 
ATOM     22  C   UNL     1     -43.501  -0.659 -33.159  0.00  0.00    +0.000 A 
ATOM     23  C   UNL     1     -44.378  -0.642 -32.070  0.00  0.00    +0.000 A 
ATOM     24  C   UNL     1     -44.858  -1.844 -31.541  0.00  0.00    +0.000 A 
ATOM     25  F   UNL     1     -44.760   0.538 -31.528  0.00  0.00    +0.000 F 
ENDBRANCH  17  19
ENDBRANCH   3  16
TORSDOF 3
ENDMDL
MODEL 2
REMARK VINA RESULT:      -6.3      2.401      7.485
REMARK  Name = ZINC000096182884 ZINC96182884 PubChem-97458176
REMARK  3 active torsions:
REMARK  status: ('A' for Active; 'I' for Inactive)
REMARK    1  A    between atoms: C_2  and  C_13
REMARK    2  A    between atoms: C_3  and  C_6
REMARK    3  A    between atoms: C_7  and  N_20
REMARK                            x       y       z     vdW  Elec       q    Type
REMARK                         _______ _______ _______ _____ _____    ______ ____
ROOT
ATOM      1  C   UNL     1     -43.960  -5.639 -33.609  0.00  0.00    +0.000 C 
ATOM      2  C   UNL     1     -44.676  -3.935 -31.894  0.00  0.00    +0.000 C 
ATOM      3  C   UNL     1     -45.940  -3.386 -31.202  0.00  0.00    +0.000 C 
ATOM      4  C   UNL     1     -47.427  -4.170 -32.802  0.00  0.00    +0.000 C 
ATOM      5  C   UNL     1     -46.321  -4.802 -33.581  0.00  0.00    +0.000 C 
ATOM      6  N   UNL     1     -45.004  -4.815 -33.020  0.00  0.00    +0.000 N 
ATOM      7  O   UNL     1     -46.968  -3.028 -32.112  0.00  0.00    +0.000 OA
ATOM      8  O   UNL     1     -46.557  -5.330 -34.699  0.00  0.00    +0.000 OA
ENDROOT
BRANCH   2   9
ATOM      9  C   UNL     1     -43.786  -2.812 -32.337  0.00  0.00    +0.000 A 
ATOM     10  C   UNL     1     -42.401  -2.945 -32.193  0.00  0.00    +0.000 A 
ATOM     11  C   UNL     1     -41.551  -1.914 -32.605  0.00  0.00    +0.000 A 
ATOM     12  C   UNL     1     -42.083  -0.748 -33.165  0.00  0.00    +0.000 A 
ATOM     13  C   UNL     1     -43.466  -0.613 -33.312  0.00  0.00    +0.000 A 
ATOM     14  C   UNL     1     -44.317  -1.643 -32.900  0.00  0.00    +0.000 A 
ATOM     15  F   UNL     1     -41.259   0.249 -33.564  0.00  0.00    +0.000 F 
ENDBRANCH   2   9
BRANCH   3  16
ATOM     16  C   UNL     1     -46.407  -4.235 -30.056  0.00  0.00    +0.000 C 
ATOM     17  N   UNL     1     -45.673  -5.411 -29.684  0.00  0.00    +0.000 NA
ATOM     18  O   UNL     1     -47.436  -3.884 -29.420  0.00  0.00    +0.000 OA
BRANCH  17  19
ATOM     19  C   UNL     1     -45.986  -6.318 -28.619  0.00  0.00    +0.000 A 
ATOM     20  C   UNL     1     -45.839  -5.960 -27.270  0.00  0.00    +0.000 A 
ATOM     21  C   UNL     1     -46.156  -6.872 -26.258  0.00  0.00    +0.000 A 
ATOM     22  C   UNL     1     -46.621  -8.147 -26.588  0.00  0.00    +0.000 A 
ATOM     23  C   UNL     1     -46.769  -8.510 -27.930  0.00  0.00    +0.000 A 
ATOM     24  C   UNL     1     -46.452  -7.598 -28.940  0.00  0.00    +0.000 A 
ATOM     25  F   UNL     1     -47.220  -9.747 -28.250  0.00  0.00    +0.000 F 
ENDBRANCH  17  19
ENDBRANCH   3  16
TORSDOF 3
ENDMDL
MODEL 3
REMARK VINA RESULT:      -6.1      7.386     10.073
REMARK  Name = ZINC000096182884 ZINC96182884 PubChem-97458176
REMARK  3 active torsions:
REMARK  status: ('A' for Active; 'I' for Inactive)
REMARK    1  A    between atoms: C_2  and  C_13
REMARK    2  A    between atoms: C_3  and  C_6
REMARK    3  A    between atoms: C_7  and  N_20
REMARK                            x       y       z     vdW  Elec       q    Type
REMARK                         _______ _______ _______ _____ _____    ______ ____
ROOT
ATOM      1  C   UNL     1     -42.444 -15.467 -24.118  0.00  0.00    +0.000 C 
ATOM      2  C   UNL     1     -44.526 -15.550 -25.539  0.00  0.00    +0.000 C 
ATOM      3  C   UNL     1     -45.850 -14.794 -25.774  0.00  0.00    +0.000 C 
ATOM      4  C   UNL     1     -45.836 -13.683 -23.736  0.00  0.00    +0.000 C 
ATOM      5  C   UNL     1     -44.527 -14.297 -23.363  0.00  0.00    +0.000 C 
ATOM      6  N   UNL     1     -43.828 -15.074 -24.340  0.00  0.00    +0.000 N 
ATOM      7  O   UNL     1     -46.573 -14.543 -24.579  0.00  0.00    +0.000 OA
ATOM      8  O   UNL     1     -44.045 -14.109 -22.215  0.00  0.00    +0.000 OA
ENDROOT
BRANCH   2   9
ATOM      9  C   UNL     1     -44.766 -17.028 -25.465  0.00  0.00    +0.000 A 
ATOM     10  C   UNL     1     -44.073 -17.875 -26.337  0.00  0.00    +0.000 A 
ATOM     11  C   UNL     1     -44.276 -19.257 -26.282  0.00  0.00    +0.000 A 
ATOM     12  C   UNL     1     -45.170 -19.797 -25.352  0.00  0.00    +0.000 A 
ATOM     13  C   UNL     1     -45.863 -18.955 -24.478  0.00  0.00    +0.000 A 
ATOM     14  C   UNL     1     -45.661 -17.573 -24.533  0.00  0.00    +0.000 A 
ATOM     15  F   UNL     1     -45.365 -21.136 -25.300  0.00  0.00    +0.000 F 
ENDBRANCH   2   9
BRANCH   3  16
ATOM     16  C   UNL     1     -45.701 -13.594 -26.663  0.00  0.00    +0.000 C 
ATOM     17  N   UNL     1     -46.849 -12.806 -27.010  0.00  0.00    +0.000 NA
ATOM     18  O   UNL     1     -44.552 -13.284 -27.076  0.00  0.00    +0.000 OA
BRANCH  17  19
ATOM     19  C   UNL     1     -46.871 -11.638 -27.839  0.00  0.00    +0.000 A 
ATOM     20  C   UNL     1     -46.869 -11.721 -29.241  0.00  0.00    +0.000 A 
ATOM     21  C   UNL     1     -46.892 -10.558 -30.017  0.00  0.00    +0.000 A 
ATOM     22  C   UNL     1     -46.918  -9.305 -29.398  0.00  0.00    +0.000 A 
ATOM     23  C   UNL     1     -46.921  -9.216 -28.003  0.00  0.00    +0.000 A 
ATOM     24  C   UNL     1     -46.897 -10.380 -27.228  0.00  0.00    +0.000 A 
ATOM     25  F   UNL     1     -46.946  -8.002 -27.403  0.00  0.00    +0.000 F 
ENDBRANCH  17  19
ENDBRANCH   3  16
TORSDOF 3
ENDMDL
