MODEL 1
REMARK VINA RESULT:      -6.5      0.000      0.000
REMARK  Name = 71496458
REMARK  14 active torsions:
REMARK  status: ('A' for Active; 'I' for Inactive)
REMARK    1  A    between atoms: O_1  and  C_21
REMARK    2  A    between atoms: O_1  and  C_35
REMARK    3  A    between atoms: N_3  and  C_10
REMARK    4  A    between atoms: N_3  and  C_11
REMARK    5  A    between atoms: N_3  and  C_20
REMARK    6  A    between atoms: N_4  and  C_26
REMARK    7  A    between atoms: N_5  and  C_12
REMARK    8  A    between atoms: N_5  and  C_27
REMARK    9  A    between atoms: N_5  and  C_28
REMARK   10  A    between atoms: N_6  and  C_19
REMARK   11  A    between atoms: N_7  and  C_16
REMARK   12  A    between atoms: C_10  and  C_12
REMARK   13  A    between atoms: C_15  and  C_23
REMARK   14  A    between atoms: C_34  and  C_36
REMARK                            x       y       z     vdW  Elec       q    Type
REMARK                         _______ _______ _______ _____ _____    ______ ____
ROOT
ATOM      1  C   UNL     1     -45.873 -10.463 -34.152  0.00  0.00    +0.000 A 
ATOM      2  C   UNL     1     -46.495  -9.222 -34.295  0.00  0.00    +0.000 A 
ATOM      3  C   UNL     1     -45.635 -10.981 -32.879  0.00  0.00    +0.000 A 
ATOM      4  C   UNL     1     -46.639  -9.017 -31.892  0.00  0.00    +0.000 A 
ATOM      5  C   UNL     1     -46.019 -10.257 -31.749  0.00  0.00    +0.000 A 
ATOM      6  C   UNL     1     -46.878  -8.499 -33.166  0.00  0.00    +0.000 A 
ENDROOT
BRANCH   4   7
ATOM      7  N   UNL     1     -47.030  -8.277 -30.761  0.00  0.00    +0.000 N 
ATOM      8  N   UNL     1     -45.647  -6.388 -30.928  0.00  0.00    +0.000 NA
ATOM      9  N   UNL     1     -47.214  -6.617 -29.111  0.00  0.00    +0.000 NA
ATOM     10  C   UNL     1     -45.270  -5.203 -30.404  0.00  0.00    +0.000 A 
ATOM     11  C   UNL     1     -46.610  -7.032 -30.241  0.00  0.00    +0.000 A 
ATOM     12  C   UNL     1     -45.811  -4.667 -29.254  0.00  0.00    +0.000 A 
ATOM     13  C   UNL     1     -46.789  -5.426 -28.644  0.00  0.00    +0.000 A 
ATOM     14  H   UNL     1     -47.651  -8.773 -30.129  0.00  0.00    +0.000 HD
BRANCH  10  18
ATOM     15  N   UNL     1     -42.318  -4.175 -32.173  0.00  0.00    +0.000 N 
ATOM     16  C   UNL     1     -44.196  -3.145 -31.550  0.00  0.00    +0.000 A 
ATOM     17  C   UNL     1     -42.977  -2.967 -32.207  0.00  0.00    +0.000 A 
ATOM     18  C   UNL     1     -44.245  -4.501 -31.121  0.00  0.00    +0.000 A 
ATOM     19  C   UNL     1     -43.077  -5.108 -31.519  0.00  0.00    +0.000 A 
ATOM     20  C   UNL     1     -45.074  -2.049 -31.440  0.00  0.00    +0.000 A 
ATOM     21  C   UNL     1     -42.590  -1.742 -32.763  0.00  0.00    +0.000 A 
ATOM     22  C   UNL     1     -41.014  -4.437 -32.743  0.00  0.00    +0.000 C 
ATOM     23  C   UNL     1     -44.701  -0.817 -31.992  0.00  0.00    +0.000 A 
ATOM     24  C   UNL     1     -43.478  -0.669 -32.643  0.00  0.00    +0.000 A 
ENDBRANCH  10  18
ENDBRANCH   4   7
BRANCH   2  26
ATOM     25  O   UNL     1     -45.059  -7.057 -35.803  0.00  0.00    +0.000 OA
ATOM     26  N   UNL     1     -46.743  -8.682 -35.561  0.00  0.00    +0.000 N 
ATOM     27  C   UNL     1     -46.037  -7.668 -36.218  0.00  0.00    +0.000 C 
ATOM     28  H   UNL     1     -47.538  -9.090 -36.048  0.00  0.00    +0.000 HD
BRANCH  27  29
ATOM     29  C   UNL     1     -46.619  -7.375 -37.559  0.00  0.00    +0.000 C 
ATOM     30  C   UNL     1     -47.403  -6.308 -37.742  0.00  0.00    +0.000 C 
ENDBRANCH  27  29
ENDBRANCH   2  26
BRANCH   5  31
ATOM     31  O   UNL     1     -45.777 -10.781 -30.514  0.00  0.00    +0.000 OA
ATOM     32  C   UNL     1     -45.004 -11.978 -30.458  0.00  0.00    +0.000 C 
ENDBRANCH   5  31
BRANCH   1  33
ATOM     33  N   UNL     1     -45.478 -11.212 -35.283  0.00  0.00    +0.000 N 
ATOM     34  C   UNL     1     -46.467 -11.896 -36.090  0.00  0.00    +0.000 C 
BRANCH  33  35
ATOM     35  C   UNL     1     -44.080 -11.297 -35.652  0.00  0.00    +0.000 C 
BRANCH  35  36
ATOM     36  C   UNL     1     -43.612 -12.744 -35.556  0.00  0.00    +0.000 C 
BRANCH  36  37
ATOM     37  N   UNL     1     -42.290 -12.809 -34.948  0.00  0.00    +0.000 NA
ATOM     38  C   UNL     1     -41.261 -12.394 -35.903  0.00  0.00    +0.000 C 
ATOM     39  C   UNL     1     -42.233 -11.973 -33.746  0.00  0.00    +0.000 C 
ENDBRANCH  36  37
ENDBRANCH  35  36
ENDBRANCH  33  35
ENDBRANCH   1  33
TORSDOF 9
ENDMDL
MODEL 2
REMARK VINA RESULT:      -6.5      9.897     15.001
REMARK  Name = 71496458
REMARK  14 active torsions:
REMARK  status: ('A' for Active; 'I' for Inactive)
REMARK    1  A    between atoms: O_1  and  C_21
REMARK    2  A    between atoms: O_1  and  C_35
REMARK    3  A    between atoms: N_3  and  C_10
REMARK    4  A    between atoms: N_3  and  C_11
REMARK    5  A    between atoms: N_3  and  C_20
REMARK    6  A    between atoms: N_4  and  C_26
REMARK    7  A    between atoms: N_5  and  C_12
REMARK    8  A    between atoms: N_5  and  C_27
REMARK    9  A    between atoms: N_5  and  C_28
REMARK   10  A    between atoms: N_6  and  C_19
REMARK   11  A    between atoms: N_7  and  C_16
REMARK   12  A    between atoms: C_10  and  C_12
REMARK   13  A    between atoms: C_15  and  C_23
REMARK   14  A    between atoms: C_34  and  C_36
REMARK                            x       y       z     vdW  Elec       q    Type
REMARK                         _______ _______ _______ _____ _____    ______ ____
ROOT
ATOM      1  C   UNL     1     -44.276 -13.891 -19.866  0.00  0.00    +0.000 A 
ATOM      2  C   UNL     1     -45.347 -14.544 -20.477  0.00  0.00    +0.000 A 
ATOM      3  C   UNL     1     -43.715 -12.762 -20.464  0.00  0.00    +0.000 A 
ATOM      4  C   UNL     1     -45.295 -12.941 -22.284  0.00  0.00    +0.000 A 
ATOM      5  C   UNL     1     -44.225 -12.288 -21.673  0.00  0.00    +0.000 A 
ATOM      6  C   UNL     1     -45.856 -14.070 -21.685  0.00  0.00    +0.000 A 
ENDROOT
BRANCH   4   7
ATOM      7  N   UNL     1     -45.817 -12.473 -23.504  0.00  0.00    +0.000 N 
ATOM      8  N   UNL     1     -45.216 -14.203 -24.972  0.00  0.00    +0.000 NA
ATOM      9  N   UNL     1     -46.427 -12.274 -25.762  0.00  0.00    +0.000 NA
ATOM     10  C   UNL     1     -45.238 -14.685 -26.232  0.00  0.00    +0.000 A 
ATOM     11  C   UNL     1     -45.821 -13.010 -24.811  0.00  0.00    +0.000 A 
ATOM     12  C   UNL     1     -45.827 -14.030 -27.294  0.00  0.00    +0.000 A 
ATOM     13  C   UNL     1     -46.412 -12.816 -26.996  0.00  0.00    +0.000 A 
ATOM     14  H   UNL     1     -46.162 -11.518 -23.474  0.00  0.00    +0.000 HD
BRANCH  10  18
ATOM     15  N   UNL     1     -43.133 -17.429 -27.206  0.00  0.00    +0.000 N 
ATOM     16  C   UNL     1     -44.917 -17.230 -25.882  0.00  0.00    +0.000 A 
ATOM     17  C   UNL     1     -43.984 -18.137 -26.387  0.00  0.00    +0.000 A 
ATOM     18  C   UNL     1     -44.599 -15.955 -26.426  0.00  0.00    +0.000 A 
ATOM     19  C   UNL     1     -43.498 -16.109 -27.236  0.00  0.00    +0.000 A 
ATOM     20  C   UNL     1     -45.915 -17.702 -25.005  0.00  0.00    +0.000 A 
ATOM     21  C   UNL     1     -43.997 -19.498 -26.059  0.00  0.00    +0.000 A 
ATOM     22  C   UNL     1     -42.014 -17.983 -27.936  0.00  0.00    +0.000 C 
ATOM     23  C   UNL     1     -45.940 -19.060 -24.667  0.00  0.00    +0.000 A 
ATOM     24  C   UNL     1     -44.995 -19.942 -25.187  0.00  0.00    +0.000 A 
ENDBRANCH  10  18
ENDBRANCH   4   7
BRANCH   2  26
ATOM     25  O   UNL     1     -45.269 -17.422 -21.332  0.00  0.00    +0.000 OA
ATOM     26  N   UNL     1     -45.925 -15.677 -19.897  0.00  0.00    +0.000 N 
ATOM     27  C   UNL     1     -45.855 -17.003 -20.342  0.00  0.00    +0.000 C 
ATOM     28  H   UNL     1     -46.457 -15.495 -19.048  0.00  0.00    +0.000 HD
BRANCH  27  29
ATOM     29  C   UNL     1     -46.610 -17.923 -19.442  0.00  0.00    +0.000 C 
ATOM     30  C   UNL     1     -46.638 -19.237 -19.684  0.00  0.00    +0.000 C 
ENDBRANCH  27  29
ENDBRANCH   2  26
BRANCH   5  31
ATOM     31  O   UNL     1     -43.662 -11.184 -22.242  0.00  0.00    +0.000 OA
ATOM     32  C   UNL     1     -43.951  -9.925 -21.637  0.00  0.00    +0.000 C 
ENDBRANCH   5  31
BRANCH   1  33
ATOM     33  N   UNL     1     -43.746 -14.354 -18.641  0.00  0.00    +0.000 N 
ATOM     34  C   UNL     1     -44.395 -14.022 -17.390  0.00  0.00    +0.000 C 
BRANCH  33  35
ATOM     35  C   UNL     1     -42.551 -15.172 -18.625  0.00  0.00    +0.000 C 
BRANCH  35  36
ATOM     36  C   UNL     1     -42.911 -16.595 -18.217  0.00  0.00    +0.000 C 
BRANCH  36  37
ATOM     37  N   UNL     1     -42.493 -17.538 -19.247  0.00  0.00    +0.000 NA
ATOM     38  C   UNL     1     -41.058 -17.414 -19.509  0.00  0.00    +0.000 C 
ATOM     39  C   UNL     1     -42.819 -18.910 -18.852  0.00  0.00    +0.000 C 
ENDBRANCH  36  37
ENDBRANCH  35  36
ENDBRANCH  33  35
ENDBRANCH   1  33
TORSDOF 9
ENDMDL
MODEL 3
REMARK VINA RESULT:      -6.4      9.682     15.067
REMARK  Name = 71496458
REMARK  14 active torsions:
REMARK  status: ('A' for Active; 'I' for Inactive)
REMARK    1  A    between atoms: O_1  and  C_21
REMARK    2  A    between atoms: O_1  and  C_35
REMARK    3  A    between atoms: N_3  and  C_10
REMARK    4  A    between atoms: N_3  and  C_11
REMARK    5  A    between atoms: N_3  and  C_20
REMARK    6  A    between atoms: N_4  and  C_26
REMARK    7  A    between atoms: N_5  and  C_12
REMARK    8  A    between atoms: N_5  and  C_27
REMARK    9  A    between atoms: N_5  and  C_28
REMARK   10  A    between atoms: N_6  and  C_19
REMARK   11  A    between atoms: N_7  and  C_16
REMARK   12  A    between atoms: C_10  and  C_12
REMARK   13  A    between atoms: C_15  and  C_23
REMARK   14  A    between atoms: C_34  and  C_36
REMARK                            x       y       z     vdW  Elec       q    Type
REMARK                         _______ _______ _______ _____ _____    ______ ____
ROOT
ATOM      1  C   UNL     1     -44.973 -13.983 -20.149  0.00  0.00    +0.000 A 
ATOM      2  C   UNL     1     -45.601 -14.817 -21.075  0.00  0.00    +0.000 A 
ATOM      3  C   UNL     1     -44.647 -12.673 -20.500  0.00  0.00    +0.000 A 
ATOM      4  C   UNL     1     -45.577 -13.030 -22.701  0.00  0.00    +0.000 A 
ATOM      5  C   UNL     1     -44.950 -12.196 -21.776  0.00  0.00    +0.000 A 
ATOM      6  C   UNL     1     -45.903 -14.341 -22.350  0.00  0.00    +0.000 A 
ENDROOT
BRANCH   4   7
ATOM      7  N   UNL     1     -45.887 -12.563 -23.992  0.00  0.00    +0.000 N 
ATOM      8  N   UNL     1     -45.163 -14.349 -25.330  0.00  0.00    +0.000 NA
ATOM      9  N   UNL     1     -46.141 -12.380 -26.318  0.00  0.00    +0.000 NA
ATOM     10  C   UNL     1     -45.020 -14.856 -26.573  0.00  0.00    +0.000 A 
ATOM     11  C   UNL     1     -45.723 -13.125 -25.277  0.00  0.00    +0.000 A 
ATOM     12  C   UNL     1     -45.409 -14.194 -27.720  0.00  0.00    +0.000 A 
ATOM     13  C   UNL     1     -45.969 -12.948 -27.529  0.00  0.00    +0.000 A 
ATOM     14  H   UNL     1     -46.183 -11.592 -24.026  0.00  0.00    +0.000 HD
BRANCH  10  18
ATOM     15  N   UNL     1     -43.004 -17.742 -27.285  0.00  0.00    +0.000 N 
ATOM     16  C   UNL     1     -44.798 -17.373 -26.011  0.00  0.00    +0.000 A 
ATOM     17  C   UNL     1     -43.891 -18.351 -26.425  0.00  0.00    +0.000 A 
ATOM     18  C   UNL     1     -44.425 -16.159 -26.651  0.00  0.00    +0.000 A 
ATOM     19  C   UNL     1     -43.320 -16.418 -27.427  0.00  0.00    +0.000 A 
ATOM     20  C   UNL     1     -45.825 -17.735 -25.115  0.00  0.00    +0.000 A 
ATOM     21  C   UNL     1     -43.959 -19.678 -25.987  0.00  0.00    +0.000 A 
ATOM     22  C   UNL     1     -41.896 -18.394 -27.948  0.00  0.00    +0.000 C 
ATOM     23  C   UNL     1     -45.904 -19.060 -24.668  0.00  0.00    +0.000 A 
ATOM     24  C   UNL     1     -44.984 -20.014 -25.099  0.00  0.00    +0.000 A 
ENDBRANCH  10  18
ENDBRANCH   4   7
BRANCH   2  26
ATOM     25  O   UNL     1     -44.328 -17.410 -21.896  0.00  0.00    +0.000 OA
ATOM     26  N   UNL     1     -45.936 -16.134 -20.747  0.00  0.00    +0.000 N 
ATOM     27  C   UNL     1     -45.303 -17.312 -21.161  0.00  0.00    +0.000 C 
ATOM     28  H   UNL     1     -46.740 -16.226 -20.129  0.00  0.00    +0.000 HD
BRANCH  27  29
ATOM     29  C   UNL     1     -45.966 -18.520 -20.591  0.00  0.00    +0.000 C 
ATOM     30  C   UNL     1     -46.726 -18.424 -19.495  0.00  0.00    +0.000 C 
ENDBRANCH  27  29
ENDBRANCH   2  26
BRANCH   5  31
ATOM     31  O   UNL     1     -44.624 -10.913 -22.099  0.00  0.00    +0.000 OA
ATOM     32  C   UNL     1     -43.244 -10.633 -22.327  0.00  0.00    +0.000 C 
ENDBRANCH   5  31
BRANCH   1  33
ATOM     33  N   UNL     1     -44.659 -14.444 -18.851  0.00  0.00    +0.000 N 
ATOM     34  C   UNL     1     -43.382 -15.075 -18.587  0.00  0.00    +0.000 C 
BRANCH  33  35
ATOM     35  C   UNL     1     -45.608 -14.283 -17.769  0.00  0.00    +0.000 C 
BRANCH  35  36
ATOM     36  C   UNL     1     -44.924 -13.612 -16.585  0.00  0.00    +0.000 C 
BRANCH  36  37
ATOM     37  N   UNL     1     -45.254 -12.192 -16.547  0.00  0.00    +0.000 NA
ATOM     38  C   UNL     1     -44.101 -11.384 -16.945  0.00  0.00    +0.000 C 
ATOM     39  C   UNL     1     -46.398 -11.907 -17.417  0.00  0.00    +0.000 C 
ENDBRANCH  36  37
ENDBRANCH  35  36
ENDBRANCH  33  35
ENDBRANCH   1  33
TORSDOF 9
ENDMDL
MODEL 4
REMARK VINA RESULT:      -6.3      9.011     13.704
REMARK  Name = 71496458
REMARK  14 active torsions:
REMARK  status: ('A' for Active; 'I' for Inactive)
REMARK    1  A    between atoms: O_1  and  C_21
REMARK    2  A    between atoms: O_1  and  C_35
REMARK    3  A    between atoms: N_3  and  C_10
REMARK    4  A    between atoms: N_3  and  C_11
REMARK    5  A    between atoms: N_3  and  C_20
REMARK    6  A    between atoms: N_4  and  C_26
REMARK    7  A    between atoms: N_5  and  C_12
REMARK    8  A    between atoms: N_5  and  C_27
REMARK    9  A    between atoms: N_5  and  C_28
REMARK   10  A    between atoms: N_6  and  C_19
REMARK   11  A    between atoms: N_7  and  C_16
REMARK   12  A    between atoms: C_10  and  C_12
REMARK   13  A    between atoms: C_15  and  C_23
REMARK   14  A    between atoms: C_34  and  C_36
REMARK                            x       y       z     vdW  Elec       q    Type
REMARK                         _______ _______ _______ _____ _____    ______ ____
ROOT
ATOM      1  C   UNL     1     -44.150 -11.906 -24.324  0.00  0.00    +0.000 A 
ATOM      2  C   UNL     1     -45.229 -12.768 -24.526  0.00  0.00    +0.000 A 
ATOM      3  C   UNL     1     -43.726 -11.614 -23.028  0.00  0.00    +0.000 A 
ATOM      4  C   UNL     1     -45.458 -13.043 -22.137  0.00  0.00    +0.000 A 
ATOM      5  C   UNL     1     -44.380 -12.183 -21.935  0.00  0.00    +0.000 A 
ATOM      6  C   UNL     1     -45.882 -13.336 -23.434  0.00  0.00    +0.000 A 
ENDROOT
BRANCH   4   7
ATOM      7  N   UNL     1     -46.128 -13.623 -21.043  0.00  0.00    +0.000 N 
ATOM      8  N   UNL     1     -45.426 -15.857 -21.187  0.00  0.00    +0.000 NA
ATOM      9  N   UNL     1     -46.929 -15.142 -19.443  0.00  0.00    +0.000 NA
ATOM     10  C   UNL     1     -45.483 -17.104 -20.672  0.00  0.00    +0.000 A 
ATOM     11  C   UNL     1     -46.162 -14.939 -20.532  0.00  0.00    +0.000 A 
ATOM     12  C   UNL     1     -46.228 -17.442 -19.562  0.00  0.00    +0.000 A 
ATOM     13  C   UNL     1     -46.938 -16.409 -18.983  0.00  0.00    +0.000 A 
ATOM     14  H   UNL     1     -46.805 -13.013 -20.596  0.00  0.00    +0.000 HD
BRANCH  10  18
ATOM     15  N   UNL     1     -43.088 -19.582 -21.687  0.00  0.00    +0.000 N 
ATOM     16  C   UNL     1     -44.873 -18.655 -22.653  0.00  0.00    +0.000 A 
ATOM     17  C   UNL     1     -43.846 -19.583 -22.837  0.00  0.00    +0.000 A 
ATOM     18  C   UNL     1     -44.705 -18.097 -21.355  0.00  0.00    +0.000 A 
ATOM     19  C   UNL     1     -43.600 -18.687 -20.786  0.00  0.00    +0.000 A 
ATOM     20  C   UNL     1     -45.803 -18.458 -23.694  0.00  0.00    +0.000 A 
ATOM     21  C   UNL     1     -43.702 -20.328 -24.013  0.00  0.00    +0.000 A 
ATOM     22  C   UNL     1     -41.920 -20.401 -21.450  0.00  0.00    +0.000 C 
ATOM     23  C   UNL     1     -45.671 -19.196 -24.876  0.00  0.00    +0.000 A 
ATOM     24  C   UNL     1     -44.636 -20.116 -25.031  0.00  0.00    +0.000 A 
ENDBRANCH  10  18
ENDBRANCH   4   7
BRANCH   2  26
ATOM     25  O   UNL     1     -47.239 -11.381 -26.274  0.00  0.00    +0.000 OA
ATOM     26  N   UNL     1     -45.672 -13.075 -25.816  0.00  0.00    +0.000 N 
ATOM     27  C   UNL     1     -46.618 -12.389 -26.588  0.00  0.00    +0.000 C 
ATOM     28  H   UNL     1     -45.243 -13.902 -26.227  0.00  0.00    +0.000 HD
BRANCH  27  29
ATOM     29  C   UNL     1     -46.816 -13.038 -27.916  0.00  0.00    +0.000 C 
ATOM     30  C   UNL     1     -45.839 -13.762 -28.471  0.00  0.00    +0.000 C 
ENDBRANCH  27  29
ENDBRANCH   2  26
BRANCH   5  31
ATOM     31  O   UNL     1     -43.950 -11.884 -20.676  0.00  0.00    +0.000 OA
ATOM     32  C   UNL     1     -42.595 -12.196 -20.363  0.00  0.00    +0.000 C 
ENDBRANCH   5  31
BRANCH   1  33
ATOM     33  N   UNL     1     -43.472 -11.320 -25.417  0.00  0.00    +0.000 N 
ATOM     34  C   UNL     1     -42.409 -12.038 -26.088  0.00  0.00    +0.000 C 
BRANCH  33  35
ATOM     35  C   UNL     1     -43.841  -9.999 -25.881  0.00  0.00    +0.000 C 
BRANCH  35  36
ATOM     36  C   UNL     1     -43.478  -9.855 -27.354  0.00  0.00    +0.000 C 
BRANCH  36  37
ATOM     37  N   UNL     1     -44.677  -9.927 -28.181  0.00  0.00    +0.000 NA
ATOM     38  C   UNL     1     -45.282  -8.602 -28.329  0.00  0.00    +0.000 C 
ATOM     39  C   UNL     1     -44.362 -10.491 -29.495  0.00  0.00    +0.000 C 
ENDBRANCH  36  37
ENDBRANCH  35  36
ENDBRANCH  33  35
ENDBRANCH   1  33
TORSDOF 9
ENDMDL
MODEL 5
REMARK VINA RESULT:      -6.3      7.637     12.343
REMARK  Name = 71496458
REMARK  14 active torsions:
REMARK  status: ('A' for Active; 'I' for Inactive)
REMARK    1  A    between atoms: O_1  and  C_21
REMARK    2  A    between atoms: O_1  and  C_35
REMARK    3  A    between atoms: N_3  and  C_10
REMARK    4  A    between atoms: N_3  and  C_11
REMARK    5  A    between atoms: N_3  and  C_20
REMARK    6  A    between atoms: N_4  and  C_26
REMARK    7  A    between atoms: N_5  and  C_12
REMARK    8  A    between atoms: N_5  and  C_27
REMARK    9  A    between atoms: N_5  and  C_28
REMARK   10  A    between atoms: N_6  and  C_19
REMARK   11  A    between atoms: N_7  and  C_16
REMARK   12  A    between atoms: C_10  and  C_12
REMARK   13  A    between atoms: C_15  and  C_23
REMARK   14  A    between atoms: C_34  and  C_36
REMARK                            x       y       z     vdW  Elec       q    Type
REMARK                         _______ _______ _______ _____ _____    ______ ____
ROOT
ATOM      1  C   UNL     1     -42.744 -13.247 -28.304  0.00  0.00    +0.000 A 
ATOM      2  C   UNL     1     -44.097 -13.582 -28.234  0.00  0.00    +0.000 A 
ATOM      3  C   UNL     1     -41.772 -14.217 -28.060  0.00  0.00    +0.000 A 
ATOM      4  C   UNL     1     -43.505 -15.857 -27.675  0.00  0.00    +0.000 A 
ATOM      5  C   UNL     1     -42.153 -15.523 -27.746  0.00  0.00    +0.000 A 
ATOM      6  C   UNL     1     -44.477 -14.886 -27.920  0.00  0.00    +0.000 A 
ENDROOT
BRANCH   4   7
ATOM      7  N   UNL     1     -43.903 -17.169 -27.358  0.00  0.00    +0.000 N 
ATOM      8  N   UNL     1     -44.713 -16.904 -25.172  0.00  0.00    +0.000 NA
ATOM      9  N   UNL     1     -44.735 -19.061 -26.247  0.00  0.00    +0.000 NA
ATOM     10  C   UNL     1     -45.263 -17.483 -24.084  0.00  0.00    +0.000 A 
ATOM     11  C   UNL     1     -44.479 -17.740 -26.202  0.00  0.00    +0.000 A 
ATOM     12  C   UNL     1     -45.574 -18.825 -24.004  0.00  0.00    +0.000 A 
ATOM     13  C   UNL     1     -45.285 -19.572 -25.127  0.00  0.00    +0.000 A 
ATOM     14  H   UNL     1     -43.625 -17.868 -28.041  0.00  0.00    +0.000 HD
BRANCH  10  18
ATOM     15  N   UNL     1     -45.888 -14.709 -21.889  0.00  0.00    +0.000 N 
ATOM     16  C   UNL     1     -45.685 -16.911 -21.594  0.00  0.00    +0.000 A 
ATOM     17  C   UNL     1     -45.914 -15.702 -20.935  0.00  0.00    +0.000 A 
ATOM     18  C   UNL     1     -45.520 -16.609 -22.975  0.00  0.00    +0.000 A 
ATOM     19  C   UNL     1     -45.651 -15.249 -23.125  0.00  0.00    +0.000 A 
ATOM     20  C   UNL     1     -45.660 -18.101 -20.840  0.00  0.00    +0.000 A 
ATOM     21  C   UNL     1     -46.122 -15.622 -19.553  0.00  0.00    +0.000 A 
ATOM     22  C   UNL     1     -46.083 -13.297 -21.638  0.00  0.00    +0.000 C 
ATOM     23  C   UNL     1     -45.866 -18.036 -19.456  0.00  0.00    +0.000 A 
ATOM     24  C   UNL     1     -46.093 -16.815 -18.825  0.00  0.00    +0.000 A 
ENDBRANCH  10  18
ENDBRANCH   4   7
BRANCH   2  26
ATOM     25  O   UNL     1     -46.072 -13.350 -30.485  0.00  0.00    +0.000 OA
ATOM     26  N   UNL     1     -45.088 -12.626 -28.474  0.00  0.00    +0.000 N 
ATOM     27  C   UNL     1     -45.986 -12.568 -29.546  0.00  0.00    +0.000 C 
ATOM     28  H   UNL     1     -45.150 -11.893 -27.771  0.00  0.00    +0.000 HD
BRANCH  27  29
ATOM     29  C   UNL     1     -46.891 -11.387 -29.439  0.00  0.00    +0.000 C 
ATOM     30  C   UNL     1     -46.575 -10.232 -30.034  0.00  0.00    +0.000 C 
ENDBRANCH  27  29
ENDBRANCH   2  26
BRANCH   5  31
ATOM     31  O   UNL     1     -41.188 -16.457 -27.511  0.00  0.00    +0.000 OA
ATOM     32  C   UNL     1     -40.483 -16.958 -28.644  0.00  0.00    +0.000 C 
ENDBRANCH   5  31
BRANCH   1  33
ATOM     33  N   UNL     1     -42.336 -11.932 -28.622  0.00  0.00    +0.000 N 
ATOM     34  C   UNL     1     -42.169 -11.531 -30.004  0.00  0.00    +0.000 C 
BRANCH  33  35
ATOM     35  C   UNL     1     -42.089 -10.969 -27.569  0.00  0.00    +0.000 C 
BRANCH  35  36
ATOM     36  C   UNL     1     -43.057  -9.801 -27.707  0.00  0.00    +0.000 C 
BRANCH  36  37
ATOM     37  N   UNL     1     -44.285 -10.071 -26.969  0.00  0.00    +0.000 NA
ATOM     38  C   UNL     1     -43.981 -10.612 -25.643  0.00  0.00    +0.000 C 
ATOM     39  C   UNL     1     -45.091  -8.854 -26.848  0.00  0.00    +0.000 C 
ENDBRANCH  36  37
ENDBRANCH  35  36
ENDBRANCH  33  35
ENDBRANCH   1  33
TORSDOF 9
ENDMDL
MODEL 6
REMARK VINA RESULT:      -6.2      2.710      5.938
REMARK  Name = 71496458
REMARK  14 active torsions:
REMARK  status: ('A' for Active; 'I' for Inactive)
REMARK    1  A    between atoms: O_1  and  C_21
REMARK    2  A    between atoms: O_1  and  C_35
REMARK    3  A    between atoms: N_3  and  C_10
REMARK    4  A    between atoms: N_3  and  C_11
REMARK    5  A    between atoms: N_3  and  C_20
REMARK    6  A    between atoms: N_4  and  C_26
REMARK    7  A    between atoms: N_5  and  C_12
REMARK    8  A    between atoms: N_5  and  C_27
REMARK    9  A    between atoms: N_5  and  C_28
REMARK   10  A    between atoms: N_6  and  C_19
REMARK   11  A    between atoms: N_7  and  C_16
REMARK   12  A    between atoms: C_10  and  C_12
REMARK   13  A    between atoms: C_15  and  C_23
REMARK   14  A    between atoms: C_34  and  C_36
REMARK                            x       y       z     vdW  Elec       q    Type
REMARK                         _______ _______ _______ _____ _____    ______ ____
ROOT
ATOM      1  C   UNL     1     -46.698  -8.795 -28.457  0.00  0.00    +0.000 A 
ATOM      2  C   UNL     1     -47.049  -7.688 -29.230  0.00  0.00    +0.000 A 
ATOM      3  C   UNL     1     -46.369 -10.001 -29.075  0.00  0.00    +0.000 A 
ATOM      4  C   UNL     1     -46.742  -8.993 -31.240  0.00  0.00    +0.000 A 
ATOM      5  C   UNL     1     -46.391 -10.099 -30.467  0.00  0.00    +0.000 A 
ATOM      6  C   UNL     1     -47.071  -7.786 -30.620  0.00  0.00    +0.000 A 
ENDROOT
BRANCH   4   7
ATOM      7  N   UNL     1     -46.770  -9.079 -32.644  0.00  0.00    +0.000 N 
ATOM      8  N   UNL     1     -45.489  -7.212 -33.259  0.00  0.00    +0.000 NA
ATOM      9  N   UNL     1     -46.439  -8.666 -34.930  0.00  0.00    +0.000 NA
ATOM     10  C   UNL     1     -44.964  -6.470 -34.257  0.00  0.00    +0.000 A 
ATOM     11  C   UNL     1     -46.204  -8.280 -33.662  0.00  0.00    +0.000 A 
ATOM     12  C   UNL     1     -45.130  -6.759 -35.596  0.00  0.00    +0.000 A 
ATOM     13  C   UNL     1     -45.884  -7.880 -35.876  0.00  0.00    +0.000 A 
ATOM     14  H   UNL     1     -47.407  -9.781 -33.008  0.00  0.00    +0.000 HD
BRANCH  10  18
ATOM     15  N   UNL     1     -42.420  -4.027 -33.578  0.00  0.00    +0.000 N 
ATOM     16  C   UNL     1     -44.611  -4.146 -33.173  0.00  0.00    +0.000 A 
ATOM     17  C   UNL     1     -43.476  -3.347 -33.014  0.00  0.00    +0.000 A 
ATOM     18  C   UNL     1     -44.198  -5.327 -33.849  0.00  0.00    +0.000 A 
ATOM     19  C   UNL     1     -42.847  -5.225 -34.085  0.00  0.00    +0.000 A 
ATOM     20  C   UNL     1     -45.844  -3.678 -32.677  0.00  0.00    +0.000 A 
ATOM     21  C   UNL     1     -43.514  -2.098 -32.383  0.00  0.00    +0.000 A 
ATOM     22  C   UNL     1     -41.053  -3.557 -33.635  0.00  0.00    +0.000 C 
ATOM     23  C   UNL     1     -45.897  -2.431 -32.043  0.00  0.00    +0.000 A 
ATOM     24  C   UNL     1     -44.748  -1.655 -31.900  0.00  0.00    +0.000 A 
ENDBRANCH  10  18
ENDBRANCH   4   7
BRANCH   2  26
ATOM     25  O   UNL     1     -45.738  -4.994 -29.438  0.00  0.00    +0.000 OA
ATOM     26  N   UNL     1     -47.384  -6.469 -28.632  0.00  0.00    +0.000 N 
ATOM     27  C   UNL     1     -46.733  -5.237 -28.766  0.00  0.00    +0.000 C 
ATOM     28  H   UNL     1     -48.205  -6.502 -28.031  0.00  0.00    +0.000 HD
BRANCH  27  29
ATOM     29  C   UNL     1     -47.402  -4.173 -27.962  0.00  0.00    +0.000 C 
ATOM     30  C   UNL     1     -47.250  -4.128 -26.634  0.00  0.00    +0.000 C 
ENDBRANCH  27  29
ENDBRANCH   2  26
BRANCH   5  31
ATOM     31  O   UNL     1     -46.066 -11.287 -31.053  0.00  0.00    +0.000 OA
ATOM     32  C   UNL     1     -44.966 -12.003 -30.497  0.00  0.00    +0.000 C 
ENDBRANCH   5  31
BRANCH   1  33
ATOM     33  N   UNL     1     -46.668  -8.717 -27.046  0.00  0.00    +0.000 N 
ATOM     34  C   UNL     1     -47.726  -9.313 -26.257  0.00  0.00    +0.000 C 
BRANCH  33  35
ATOM     35  C   UNL     1     -45.574  -8.046 -26.375  0.00  0.00    +0.000 C 
BRANCH  35  36
ATOM     36  C   UNL     1     -44.337  -8.936 -26.400  0.00  0.00    +0.000 C 
BRANCH  36  37
ATOM     37  N   UNL     1     -43.236  -8.253 -27.069  0.00  0.00    +0.000 NA
ATOM     38  C   UNL     1     -42.899  -8.926 -28.325  0.00  0.00    +0.000 C 
ATOM     39  C   UNL     1     -43.577  -6.851 -27.321  0.00  0.00    +0.000 C 
ENDBRANCH  36  37
ENDBRANCH  35  36
ENDBRANCH  33  35
ENDBRANCH   1  33
TORSDOF 9
ENDMDL
MODEL 7
REMARK VINA RESULT:      -6.2      3.402      7.825
REMARK  Name = 71496458
REMARK  14 active torsions:
REMARK  status: ('A' for Active; 'I' for Inactive)
REMARK    1  A    between atoms: O_1  and  C_21
REMARK    2  A    between atoms: O_1  and  C_35
REMARK    3  A    between atoms: N_3  and  C_10
REMARK    4  A    between atoms: N_3  and  C_11
REMARK    5  A    between atoms: N_3  and  C_20
REMARK    6  A    between atoms: N_4  and  C_26
REMARK    7  A    between atoms: N_5  and  C_12
REMARK    8  A    between atoms: N_5  and  C_27
REMARK    9  A    between atoms: N_5  and  C_28
REMARK   10  A    between atoms: N_6  and  C_19
REMARK   11  A    between atoms: N_7  and  C_16
REMARK   12  A    between atoms: C_10  and  C_12
REMARK   13  A    between atoms: C_15  and  C_23
REMARK   14  A    between atoms: C_34  and  C_36
REMARK                            x       y       z     vdW  Elec       q    Type
REMARK                         _______ _______ _______ _____ _____    ______ ____
ROOT
ATOM      1  C   UNL     1     -43.644  -5.331 -30.731  0.00  0.00    +0.000 A 
ATOM      2  C   UNL     1     -45.007  -5.034 -30.693  0.00  0.00    +0.000 A 
ATOM      3  C   UNL     1     -43.014  -5.863 -29.606  0.00  0.00    +0.000 A 
ATOM      4  C   UNL     1     -45.110  -5.802 -28.404  0.00  0.00    +0.000 A 
ATOM      5  C   UNL     1     -43.748  -6.099 -28.443  0.00  0.00    +0.000 A 
ATOM      6  C   UNL     1     -45.740  -5.270 -29.531  0.00  0.00    +0.000 A 
ENDROOT
BRANCH   4   7
ATOM      7  N   UNL     1     -45.861  -6.034 -27.237  0.00  0.00    +0.000 N 
ATOM      8  N   UNL     1     -46.134  -8.364 -27.303  0.00  0.00    +0.000 NA
ATOM      9  N   UNL     1     -47.067  -7.059 -25.504  0.00  0.00    +0.000 NA
ATOM     10  C   UNL     1     -46.644  -9.467 -26.717  0.00  0.00    +0.000 A 
ATOM     11  C   UNL     1     -46.379  -7.211 -26.652  0.00  0.00    +0.000 A 
ATOM     12  C   UNL     1     -47.366  -9.447 -25.541  0.00  0.00    +0.000 A 
ATOM     13  C   UNL     1     -47.548  -8.202 -24.974  0.00  0.00    +0.000 A 
ATOM     14  H   UNL     1     -46.195  -5.191 -26.779  0.00  0.00    +0.000 HD
BRANCH  10  18
ATOM     15  N   UNL     1     -46.152 -12.117 -29.092  0.00  0.00    +0.000 N 
ATOM     16  C   UNL     1     -46.077 -11.989 -26.866  0.00  0.00    +0.000 A 
ATOM     17  C   UNL     1     -45.931 -12.856 -27.951  0.00  0.00    +0.000 A 
ATOM     18  C   UNL     1     -46.394 -10.707 -27.395  0.00  0.00    +0.000 A 
ATOM     19  C   UNL     1     -46.432 -10.817 -28.765  0.00  0.00    +0.000 A 
ATOM     20  C   UNL     1     -45.902 -12.498 -25.563  0.00  0.00    +0.000 A 
ATOM     21  C   UNL     1     -45.616 -14.211 -27.799  0.00  0.00    +0.000 A 
ATOM     22  C   UNL     1     -46.099 -12.625 -30.446  0.00  0.00    +0.000 C 
ATOM     23  C   UNL     1     -45.586 -13.852 -25.396  0.00  0.00    +0.000 A 
ATOM     24  C   UNL     1     -45.446 -14.693 -26.498  0.00  0.00    +0.000 A 
ENDBRANCH  10  18
ENDBRANCH   4   7
BRANCH   2  26
ATOM     25  O   UNL     1     -45.912  -2.226 -31.255  0.00  0.00    +0.000 OA
ATOM     26  N   UNL     1     -45.659  -4.499 -31.808  0.00  0.00    +0.000 N 
ATOM     27  C   UNL     1     -46.060  -3.174 -32.017  0.00  0.00    +0.000 C 
ATOM     28  H   UNL     1     -45.857  -5.170 -32.547  0.00  0.00    +0.000 HD
BRANCH  27  29
ATOM     29  C   UNL     1     -46.729  -3.006 -33.340  0.00  0.00    +0.000 C 
ATOM     30  C   UNL     1     -47.388  -4.024 -33.901  0.00  0.00    +0.000 C 
ENDBRANCH  27  29
ENDBRANCH   2  26
BRANCH   5  31
ATOM     31  O   UNL     1     -43.114  -6.620 -27.354  0.00  0.00    +0.000 OA
ATOM     32  C   UNL     1     -42.026  -7.507 -27.601  0.00  0.00    +0.000 C 
ENDBRANCH   5  31
BRANCH   1  33
ATOM     33  N   UNL     1     -42.883  -5.101 -31.899  0.00  0.00    +0.000 N 
ATOM     34  C   UNL     1     -42.323  -3.792 -32.163  0.00  0.00    +0.000 C 
BRANCH  33  35
ATOM     35  C   UNL     1     -42.648  -6.176 -32.841  0.00  0.00    +0.000 C 
BRANCH  35  36
ATOM     36  C   UNL     1     -43.466  -5.938 -34.104  0.00  0.00    +0.000 C 
BRANCH  36  37
ATOM     37  N   UNL     1     -44.755  -6.611 -34.007  0.00  0.00    +0.000 NA
ATOM     38  C   UNL     1     -45.329  -6.820 -35.338  0.00  0.00    +0.000 C 
ATOM     39  C   UNL     1     -44.617  -7.890 -33.307  0.00  0.00    +0.000 C 
ENDBRANCH  36  37
ENDBRANCH  35  36
ENDBRANCH  33  35
ENDBRANCH   1  33
TORSDOF 9
ENDMDL
MODEL 8
REMARK VINA RESULT:      -6.2      3.727      8.055
REMARK  Name = 71496458
REMARK  14 active torsions:
REMARK  status: ('A' for Active; 'I' for Inactive)
REMARK    1  A    between atoms: O_1  and  C_21
REMARK    2  A    between atoms: O_1  and  C_35
REMARK    3  A    between atoms: N_3  and  C_10
REMARK    4  A    between atoms: N_3  and  C_11
REMARK    5  A    between atoms: N_3  and  C_20
REMARK    6  A    between atoms: N_4  and  C_26
REMARK    7  A    between atoms: N_5  and  C_12
REMARK    8  A    between atoms: N_5  and  C_27
REMARK    9  A    between atoms: N_5  and  C_28
REMARK   10  A    between atoms: N_6  and  C_19
REMARK   11  A    between atoms: N_7  and  C_16
REMARK   12  A    between atoms: C_10  and  C_12
REMARK   13  A    between atoms: C_15  and  C_23
REMARK   14  A    between atoms: C_34  and  C_36
REMARK                            x       y       z     vdW  Elec       q    Type
REMARK                         _______ _______ _______ _____ _____    ______ ____
ROOT
ATOM      1  C   UNL     1     -46.623  -6.572 -31.183  0.00  0.00    +0.000 A 
ATOM      2  C   UNL     1     -47.152  -6.826 -29.917  0.00  0.00    +0.000 A 
ATOM      3  C   UNL     1     -46.317  -7.633 -32.035  0.00  0.00    +0.000 A 
ATOM      4  C   UNL     1     -47.067  -9.200 -30.356  0.00  0.00    +0.000 A 
ATOM      5  C   UNL     1     -46.540  -8.947 -31.621  0.00  0.00    +0.000 A 
ATOM      6  C   UNL     1     -47.374  -8.138 -29.503  0.00  0.00    +0.000 A 
ENDROOT
BRANCH   4   7
ATOM      7  N   UNL     1     -47.295 -10.520 -29.926  0.00  0.00    +0.000 N 
ATOM      8  N   UNL     1     -45.963 -10.628 -27.997  0.00  0.00    +0.000 NA
ATOM      9  N   UNL     1     -47.251 -12.534 -28.720  0.00  0.00    +0.000 NA
ATOM     10  C   UNL     1     -45.522 -11.368 -26.958  0.00  0.00    +0.000 A 
ATOM     11  C   UNL     1     -46.813 -11.264 -28.826  0.00  0.00    +0.000 A 
ATOM     12  C   UNL     1     -45.895 -12.678 -26.737  0.00  0.00    +0.000 A 
ATOM     13  C   UNL     1     -46.770 -13.214 -27.659  0.00  0.00    +0.000 A 
ATOM     14  H   UNL     1     -47.816 -11.092 -30.585  0.00  0.00    +0.000 HD
BRANCH  10  18
ATOM     15  N   UNL     1     -42.794 -10.397 -24.832  0.00  0.00    +0.000 N 
ATOM     16  C   UNL     1     -44.726  -9.447 -25.417  0.00  0.00    +0.000 A 
ATOM     17  C   UNL     1     -43.571  -9.275 -24.651  0.00  0.00    +0.000 A 
ATOM     18  C   UNL     1     -44.615 -10.709 -26.063  0.00  0.00    +0.000 A 
ATOM     19  C   UNL     1     -43.418 -11.269 -25.684  0.00  0.00    +0.000 A 
ATOM     20  C   UNL     1     -45.703  -8.430 -25.410  0.00  0.00    +0.000 A 
ATOM     21  C   UNL     1     -43.342  -8.133 -23.875  0.00  0.00    +0.000 A 
ATOM     22  C   UNL     1     -41.505 -10.634 -24.220  0.00  0.00    +0.000 C 
ATOM     23  C   UNL     1     -45.486  -7.282 -24.638  0.00  0.00    +0.000 A 
ATOM     24  C   UNL     1     -44.324  -7.137 -23.884  0.00  0.00    +0.000 A 
ENDBRANCH  10  18
ENDBRANCH   4   7
BRANCH   2  26
ATOM     25  O   UNL     1     -45.565  -5.627 -27.666  0.00  0.00    +0.000 OA
ATOM     26  N   UNL     1     -47.466  -5.779 -29.044  0.00  0.00    +0.000 N 
ATOM     27  C   UNL     1     -46.683  -5.259 -28.007  0.00  0.00    +0.000 C 
ATOM     28  H   UNL     1     -48.378  -5.356 -29.200  0.00  0.00    +0.000 HD
BRANCH  27  29
ATOM     29  C   UNL     1     -47.377  -4.141 -27.305  0.00  0.00    +0.000 C 
ATOM     30  C   UNL     1     -47.328  -4.041 -25.973  0.00  0.00    +0.000 C 
ENDBRANCH  27  29
ENDBRANCH   2  26
BRANCH   5  31
ATOM     31  O   UNL     1     -46.234  -9.970 -32.469  0.00  0.00    +0.000 OA
ATOM     32  C   UNL     1     -44.990  -9.887 -33.161  0.00  0.00    +0.000 C 
ENDBRANCH   5  31
BRANCH   1  33
ATOM     33  N   UNL     1     -46.391  -5.250 -31.622  0.00  0.00    +0.000 N 
ATOM     34  C   UNL     1     -47.422  -4.524 -32.335  0.00  0.00    +0.000 C 
BRANCH  33  35
ATOM     35  C   UNL     1     -45.123  -4.603 -31.356  0.00  0.00    +0.000 C 
BRANCH  35  36
ATOM     36  C   UNL     1     -45.337  -3.103 -31.196  0.00  0.00    +0.000 C 
BRANCH  36  37
ATOM     37  N   UNL     1     -44.185  -2.370 -31.707  0.00  0.00    +0.000 NA
ATOM     38  C   UNL     1     -43.596  -3.067 -32.852  0.00  0.00    +0.000 C 
ATOM     39  C   UNL     1     -44.568  -1.008 -32.085  0.00  0.00    +0.000 C 
ENDBRANCH  36  37
ENDBRANCH  35  36
ENDBRANCH  33  35
ENDBRANCH   1  33
TORSDOF 9
ENDMDL
MODEL 9
REMARK VINA RESULT:      -6.2      3.930      8.329
REMARK  Name = 71496458
REMARK  14 active torsions:
REMARK  status: ('A' for Active; 'I' for Inactive)
REMARK    1  A    between atoms: O_1  and  C_21
REMARK    2  A    between atoms: O_1  and  C_35
REMARK    3  A    between atoms: N_3  and  C_10
REMARK    4  A    between atoms: N_3  and  C_11
REMARK    5  A    between atoms: N_3  and  C_20
REMARK    6  A    between atoms: N_4  and  C_26
REMARK    7  A    between atoms: N_5  and  C_12
REMARK    8  A    between atoms: N_5  and  C_27
REMARK    9  A    between atoms: N_5  and  C_28
REMARK   10  A    between atoms: N_6  and  C_19
REMARK   11  A    between atoms: N_7  and  C_16
REMARK   12  A    between atoms: C_10  and  C_12
REMARK   13  A    between atoms: C_15  and  C_23
REMARK   14  A    between atoms: C_34  and  C_36
REMARK                            x       y       z     vdW  Elec       q    Type
REMARK                         _______ _______ _______ _____ _____    ______ ____
ROOT
ATOM      1  C   UNL     1     -43.707  -5.354 -30.833  0.00  0.00    +0.000 A 
ATOM      2  C   UNL     1     -45.078  -5.100 -30.777  0.00  0.00    +0.000 A 
ATOM      3  C   UNL     1     -43.041  -5.836 -29.707  0.00  0.00    +0.000 A 
ATOM      4  C   UNL     1     -45.116  -5.811 -28.469  0.00  0.00    +0.000 A 
ATOM      5  C   UNL     1     -43.746  -6.065 -28.525  0.00  0.00    +0.000 A 
ATOM      6  C   UNL     1     -45.782  -5.329 -29.596  0.00  0.00    +0.000 A 
ENDROOT
BRANCH   4   7
ATOM      7  N   UNL     1     -45.838  -6.037 -27.282  0.00  0.00    +0.000 N 
ATOM      8  N   UNL     1     -46.094  -8.369 -27.317  0.00  0.00    +0.000 NA
ATOM      9  N   UNL     1     -46.997  -7.053 -25.512  0.00  0.00    +0.000 NA
ATOM     10  C   UNL     1     -46.582  -9.470 -26.709  0.00  0.00    +0.000 A 
ATOM     11  C   UNL     1     -46.334  -7.211 -26.673  0.00  0.00    +0.000 A 
ATOM     12  C   UNL     1     -47.276  -9.443 -25.517  0.00  0.00    +0.000 A 
ATOM     13  C   UNL     1     -47.455  -8.194 -24.959  0.00  0.00    +0.000 A 
ATOM     14  H   UNL     1     -46.168  -5.192 -26.825  0.00  0.00    +0.000 HD
BRANCH  10  18
ATOM     15  N   UNL     1     -46.088 -12.133 -29.068  0.00  0.00    +0.000 N 
ATOM     16  C   UNL     1     -46.043 -11.999 -26.842  0.00  0.00    +0.000 A 
ATOM     17  C   UNL     1     -45.892 -12.871 -27.922  0.00  0.00    +0.000 A 
ATOM     18  C   UNL     1     -46.337 -10.715 -27.379  0.00  0.00    +0.000 A 
ATOM     19  C   UNL     1     -46.357 -10.829 -28.749  0.00  0.00    +0.000 A 
ATOM     20  C   UNL     1     -45.893 -12.506 -25.535  0.00  0.00    +0.000 A 
ATOM     21  C   UNL     1     -45.596 -14.229 -27.762  0.00  0.00    +0.000 A 
ATOM     22  C   UNL     1     -46.021 -12.646 -30.419  0.00  0.00    +0.000 C 
ATOM     23  C   UNL     1     -45.596 -13.863 -25.360  0.00  0.00    +0.000 A 
ATOM     24  C   UNL     1     -45.450 -14.709 -26.457  0.00  0.00    +0.000 A 
ENDBRANCH  10  18
ENDBRANCH   4   7
BRANCH   2  26
ATOM     25  O   UNL     1     -46.435  -2.460 -31.230  0.00  0.00    +0.000 OA
ATOM     26  N   UNL     1     -45.767  -4.616 -31.893  0.00  0.00    +0.000 N 
ATOM     27  C   UNL     1     -46.384  -3.369 -32.050  0.00  0.00    +0.000 C 
ATOM     28  H   UNL     1     -45.815  -5.263 -32.677  0.00  0.00    +0.000 HD
BRANCH  27  29
ATOM     29  C   UNL     1     -47.016  -3.235 -33.394  0.00  0.00    +0.000 C 
ATOM     30  C   UNL     1     -47.247  -4.315 -34.146  0.00  0.00    +0.000 C 
ENDBRANCH  27  29
ENDBRANCH   2  26
BRANCH   5  31
ATOM     31  O   UNL     1     -43.076  -6.537 -27.435  0.00  0.00    +0.000 OA
ATOM     32  C   UNL     1     -42.310  -7.726 -27.610  0.00  0.00    +0.000 C 
ENDBRANCH   5  31
BRANCH   1  33
ATOM     33  N   UNL     1     -42.975  -5.130 -32.021  0.00  0.00    +0.000 N 
ATOM     34  C   UNL     1     -43.224  -5.937 -33.197  0.00  0.00    +0.000 C 
BRANCH  33  35
ATOM     35  C   UNL     1     -41.973  -4.086 -32.075  0.00  0.00    +0.000 C 
BRANCH  35  36
ATOM     36  C   UNL     1     -42.370  -3.050 -33.120  0.00  0.00    +0.000 C 
BRANCH  36  37
ATOM     37  N   UNL     1     -42.823  -1.825 -32.473  0.00  0.00    +0.000 NA
ATOM     38  C   UNL     1     -41.694  -0.925 -32.226  0.00  0.00    +0.000 C 
ATOM     39  C   UNL     1     -43.836  -1.155 -33.290  0.00  0.00    +0.000 C 
ENDBRANCH  36  37
ENDBRANCH  35  36
ENDBRANCH  33  35
ENDBRANCH   1  33
TORSDOF 9
ENDMDL
