ZINC000253420118 PubChem-124883398


 29 31  0  0  0  0  0  0  0  0999 V2000
  -54.4753    1.4930  -17.4341 C   0  0  0  0  0
  -53.4477    2.6159  -17.4329 C   0  0  0  0  0
  -52.3787    2.1394  -19.6814 C   0  0  0  0  0
  -51.1951    1.6545  -20.4449 C   0  0  0  0  0
  -51.2536    0.1381  -20.6239 C   0  0  0  0  0
  -50.3036   -0.3394  -21.6956 C   0  0  0  0  0
  -48.9272   -0.0735  -21.6314 C   0  0  0  0  0
  -48.0766   -0.5190  -22.6453 C   0  0  0  0  0
  -48.5911   -1.2267  -23.7361 C   0  0  0  0  0
  -49.9710   -1.4874  -23.8108 C   0  0  0  0  0
  -50.8178   -1.0380  -22.7930 C   0  0  0  0  0
  -49.8014   -0.4470  -18.7497 C   0  0  0  0  0
  -49.7110   -1.3062  -17.4865 C   0  0  0  0  0
  -51.2858   -2.7517  -18.2221 C   0  0  0  0  0
  -51.4813   -1.9902  -19.5351 C   0  0  0  0  0
  -52.9819    2.9084  -16.0017 C   0  0  0  0  0
  -51.8923    3.9862  -15.9794 C   0  0  0  0  0
  -53.6900    3.1149  -13.7263 C   0  0  0  0  0
  -54.7477    3.6882  -12.7704 C   0  0  0  0  0
  -55.6972    4.9849  -14.3507 C   0  0  0  0  0
  -54.6527    4.5769  -15.4034 C   0  0  0  0  0
  -52.3097    2.2295  -18.2568 N   0  0  0  0  0
  -51.1438   -0.5765  -19.3376 N   0  0  0  0  0
  -54.1201    3.2319  -15.1259 N   0  0  0  0  0
  -53.4346    2.4471  -20.2958 O   0  0  0  0  0
  -49.9423   -2.6550  -17.8136 O   0  0  0  0  0
  -55.9533    3.9319  -13.4526 O   0  0  0  0  0
  -47.4843   -1.7712  -24.9852 Cl  0  0  0  0  0
  -50.6675   -2.3712  -25.1599 Cl  0  0  0  0  0
  2  1  1  0  0  0
  2 22  1  0  0  0
  2 16  1  0  0  0
  4  3  1  0  0  0
  5  4  1  0  0  0
  5  6  1  0  0  0
  5 23  1  0  0  0
  7  8  1  0  0  0
  9 28  1  0  0  0
  9 10  1  0  0  0
 10 29  1  0  0  0
 11  6  1  0  0  0
 12 23  1  0  0  0
 12 13  1  0  0  0
 13 26  1  0  0  0
 14 26  1  0  0  0
 14 15  1  0  0  0
 15 23  1  0  0  0
 16 17  1  0  0  0
 16 24  1  0  0  0
 18 24  1  0  0  0
 18 19  1  0  0  0
 19 27  1  0  0  0
 20 27  1  0  0  0
 20 21  1  0  0  0
 21 24  1  0  0  0
 22  3  1  0  0  0
  3 25  2  0  0  0
  6  7  2  0  0  0
  8  9  2  0  0  0
 10 11  2  0  0  0
M  END
> <rmsd>
0.61471802

$$$$
ZINC000019982589 CSC028163649 MCULE-3141841571 MolPort-009-612-954 PubChem-23409250


 31 35  0  0  0  0  0  0  0  0999 V2000
  -51.6123    5.1078  -14.7918 C   0  0  0  0  0
  -52.0436    4.7433  -16.1663 C   0  0  0  0  0
  -52.5546    5.7235  -17.0214 C   0  0  0  0  0
  -52.9596    5.3798  -18.3139 C   0  0  0  0  0
  -52.8530    4.0560  -18.7502 C   0  0  0  0  0
  -52.3410    3.0665  -17.8965 C   0  0  0  0  0
  -52.5723    1.1502  -19.5830 C   0  0  0  0  0
  -52.3284   -0.2971  -19.8476 C   0  0  0  0  0
  -49.9083   -0.6948  -19.5966 C   0  0  0  0  0
  -50.0597   -0.7592  -18.1085 C   0  0  0  0  0
  -51.3673   -1.9568  -16.5793 C   0  0  0  0  0
  -50.7603   -2.6338  -15.3680 C   0  0  0  0  0
  -49.6377   -3.4662  -15.9165 C   0  0  0  0  0
  -49.2562   -2.7615  -17.1931 C   0  0  0  0  0
  -48.5067   -0.8488  -21.4662 C   0  0  0  0  0
  -49.5632   -0.6433  -22.3283 C   0  0  0  0  0
  -49.1677   -0.6468  -23.6755 C   0  0  0  0  0
  -47.8018   -0.8936  -23.8258 C   0  0  0  0  0
  -47.0913   -0.8690  -25.1433 C   0  0  0  0  0
  -48.0831   -1.0617  -26.2948 C   0  0  0  0  0
  -49.2968   -0.1437  -26.1245 C   0  0  0  0  0
  -50.0817   -0.5130  -24.8610 C   0  0  0  0  0
  -50.8395   -0.4639  -21.7865 C   0  0  0  0  0
  -51.9376    3.4197  -16.6040 C   0  0  0  0  0
  -52.2145    1.6993  -18.3085 N   0  0  0  0  0
  -50.9956   -0.4942  -20.4216 N   0  0  0  0  0
  -50.4500   -2.1008  -17.7061 N   0  0  0  0  0
  -48.6660   -0.8782  -20.1251 N   0  0  0  0  0
  -53.0610    1.8716  -20.4923 O   0  0  0  0  0
  -51.8330   -0.2780  -22.5427 O   0  0  0  0  0
  -47.0681   -1.0516  -22.3114 S   0  0  0  0  0
  1  2  1  0  0  0
  3  4  1  0  0  0
  5  6  1  0  0  0
  6 25  1  0  0  0
  8  7  1  0  0  0
  8 26  1  0  0  0
 10  9  1  0  0  0
 10 27  1  0  0  0
 11 27  1  0  0  0
 11 12  1  0  0  0
 12 13  1  0  0  0
 13 14  1  0  0  0
 14 27  1  0  0  0
 15 28  1  0  0  0
 15 31  1  0  0  0
 16 17  1  0  0  0
 16 23  1  0  0  0
 18 31  1  0  0  0
 19 18  1  0  0  0
 19 20  1  0  0  0
 20 21  1  0  0  0
 21 22  1  0  0  0
 22 17  1  0  0  0
 23 26  1  0  0  0
 24  2  1  0  0  0
 25  7  1  0  0  0
 26  9  1  0  0  0
  2  3  2  0  0  0
  4  5  2  0  0  0
  6 24  2  0  0  0
  7 29  2  0  0  0
  9 28  2  0  0  0
 15 16  2  0  0  0
 17 18  2  0  0  0
 23 30  2  0  0  0
M  END
> <rmsd>
0.691274464

$$$$
ZINC000096181229


 25 27  0  0  0  0  0  0  0  0999 V2000
  -49.8865    4.9151  -17.6602 C   0  0  0  0  0
  -50.8421    4.4828  -16.5988 C   0  0  0  0  0
  -52.0266    3.8075  -16.7836 C   0  0  0  0  0
  -52.5985    3.3161  -18.0680 C   0  0  0  0  0
  -52.3421    1.3339  -19.6059 C   0  0  0  0  0
  -51.6903    0.0290  -19.9226 C   0  0  0  0  0
  -51.9936   -1.0082  -18.8332 C   0  0  0  0  0
  -50.6518   -1.4477  -18.4035 C   0  0  0  0  0
  -48.2066   -0.8525  -18.7069 C   0  0  0  0  0
  -50.1605    0.1924  -20.0009 C   0  0  0  0  0
  -49.6675   -0.0255  -21.3987 C   0  0  0  0  0
  -49.0221    1.0220  -22.0644 C   0  0  0  0  0
  -48.5547    0.8431  -23.3699 C   0  0  0  0  0
  -48.7314   -0.3848  -24.0143 C   0  0  0  0  0
  -48.2343   -0.5738  -25.4017 C   0  0  0  0  0
  -49.3756   -1.4349  -23.3539 C   0  0  0  0  0
  -49.8435   -1.2570  -22.0487 C   0  0  0  0  0
  -52.5452    3.5958  -15.5175 C   0  0  0  0  0
  -49.5617    5.3469  -14.6363 C   0  0  0  0  0
  -52.0016    2.0355  -18.4082 N   0  0  0  0  0
  -49.6077   -0.7927  -19.0906 N   0  0  0  0  0
  -51.6961    4.1469  -14.6212 N   0  0  0  0  0
  -50.6781    4.6762  -15.2805 N   0  0  0  0  0
  -53.1908    1.8105  -20.4058 O   0  0  0  0  0
  -50.4523   -2.3075  -17.5054 O   0  0  0  0  0
  1  2  1  0  0  0
  3 18  1  0  0  0
  4  3  1  0  0  0
  4 20  1  0  0  0
  6  5  1  0  0  0
  6  7  1  0  0  0
  7  8  1  0  0  0
  8 21  1  0  0  0
  9 21  1  0  0  0
 10 21  1  0  0  0
 10 11  1  0  0  0
 10  6  1  0  0  0
 12 13  1  0  0  0
 14 16  1  0  0  0
 15 14  1  0  0  0
 17 11  1  0  0  0
 19 23  1  0  0  0
 20  5  1  0  0  0
 23 22  1  0  0  0
 23  2  1  0  0  0
  2  3  2  0  0  0
  5 24  2  0  0  0
  8 25  2  0  0  0
 11 12  2  0  0  0
 13 14  2  0  0  0
 16 17  2  0  0  0
 18 22  2  0  0  0
M  END
> <rmsd>
0.525199234

$$$$
ZINC000020144670 PubChem-28676995


 25 26  0  0  0  0  0  0  0  0999 V2000
  -53.1724   -0.9452  -19.3112 C   0  0  0  0  0
  -52.4178    0.0562  -20.1659 C   0  0  0  0  0
  -52.6677    1.4711  -19.7400 C   0  0  0  0  0
  -51.5314    1.4460  -17.3788 C   0  0  0  0  0
  -51.2848    2.2337  -16.2410 C   0  0  0  0  0
  -50.5594    1.6951  -15.1654 C   0  0  0  0  0
  -50.0820    0.3849  -15.2187 C   0  0  0  0  0
  -50.3233   -0.4055  -16.3475 C   0  0  0  0  0
  -51.0455    0.1333  -17.4172 C   0  0  0  0  0
  -49.8267   -1.7889  -16.4160 C   0  0  0  0  0
  -51.5614    4.4086  -15.0882 C   0  0  0  0  0
  -50.3152   -0.4110  -21.3930 C   0  0  0  0  0
  -48.9348   -0.6622  -21.3420 C   0  0  0  0  0
  -48.2101   -0.8388  -22.5246 C   0  0  0  0  0
  -48.8550   -0.7664  -23.7618 C   0  0  0  0  0
  -50.2278   -0.5160  -23.8204 C   0  0  0  0  0
  -50.9559   -0.3388  -22.6411 C   0  0  0  0  0
  -53.2666    2.2226  -20.5517 O   0  0  0  0  0
  -49.1641   -2.2777  -15.4624 O   0  0  0  0  0
  -50.0858   -2.5712  -17.5357 O   0  0  0  0  0
  -51.7675    3.5470  -16.1994 O   0  0  0  0  0
  -51.0268   -0.2367  -20.2019 O   0  0  0  0  0
  -52.2675    2.0222  -18.4717 N   0  0  0  0  0
  -47.9423   -0.9885  -25.2383 Cl  0  0  0  0  0
  -48.0942   -0.7528  -19.8045 Cl  0  0  0  0  0
  2  1  1  0  0  0
  2  3  1  0  0  0
  2 22  1  0  0  0
  3 23  1  0  0  0
  5  6  1  0  0  0
  5 21  1  0  0  0
  7  8  1  0  0  0
  8 10  1  0  0  0
  9  4  1  0  0  0
 10 20  1  0  0  0
 11 21  1  0  0  0
 12 22  1  0  0  0
 13 14  1  0  0  0
 13 25  1  0  0  0
 15 16  1  0  0  0
 15 24  1  0  0  0
 17 12  1  0  0  0
 23  4  1  0  0  0
  3 18  2  0  0  0
  4  5  2  0  0  0
  6  7  2  0  0  0
  8  9  2  0  0  0
 10 19  2  0  0  0
 12 13  2  0  0  0
 14 15  2  0  0  0
 16 17  2  0  0  0
M  END
> <rmsd>
0.349094093

$$$$
ZINC000096182884 ZINC96182884 PubChem-97458176


 25 27  0  0  0  0  0  0  0  0999 V2000
  -48.3632   -0.2828  -18.9735 C   0  0  0  0  0
  -50.3024    0.3087  -20.4735 C   0  0  0  0  0
  -51.8438    0.3227  -20.4945 C   0  0  0  0  0
  -52.1018   -1.1777  -18.7422 C   0  0  0  0  0
  -50.6241   -1.2789  -18.5561 C   0  0  0  0  0
  -52.4369    1.5262  -19.8212 C   0  0  0  0  0
  -52.6224    2.9044  -17.6649 C   0  0  0  0  0
  -53.4862    3.8723  -18.2005 C   0  0  0  0  0
  -53.9366    4.9330  -17.4092 C   0  0  0  0  0
  -53.5269    5.0330  -16.0770 C   0  0  0  0  0
  -52.6672    4.0725  -15.5373 C   0  0  0  0  0
  -52.2172    3.0122  -16.3299 C   0  0  0  0  0
  -49.7618   -0.2718  -21.7456 C   0  0  0  0  0
  -49.0000    0.5377  -22.5952 C   0  0  0  0  0
  -48.4796    0.0160  -23.7833 C   0  0  0  0  0
  -48.7183   -1.3185  -24.1252 C   0  0  0  0  0
  -49.4766   -2.1324  -23.2787 C   0  0  0  0  0
  -49.9972   -1.6115  -22.0907 C   0  0  0  0  0
  -49.7741   -0.4070  -19.3083 N   0  0  0  0  0
  -52.1399    1.8022  -18.4444 N   0  0  0  0  0
  -52.4225   -0.9089  -20.0903 O   0  0  0  0  0
  -50.1450   -2.1040  -17.7338 O   0  0  0  0  0
  -53.1782    2.2926  -20.4911 O   0  0  0  0  0
  -52.2695    4.1687  -14.2461 F   0  0  0  0  0
  -48.2139   -1.8231  -25.2764 F   0  0  0  0  0
  1 19  1  0  0  0
  2 19  1  0  0  0
  2  3  1  0  0  0
  2 13  1  0  0  0
  3 21  1  0  0  0
  3  6  1  0  0  0
  4 21  1  0  0  0
  4  5  1  0  0  0
  5 19  1  0  0  0
  6 20  1  0  0  0
  8  9  1  0  0  0
 10 11  1  0  0  0
 11 24  1  0  0  0
 12  7  1  0  0  0
 14 15  1  0  0  0
 16 17  1  0  0  0
 16 25  1  0  0  0
 18 13  1  0  0  0
 20  7  1  0  0  0
  5 22  2  0  0  0
  6 23  2  0  0  0
  7  8  2  0  0  0
  9 10  2  0  0  0
 11 12  2  0  0  0
 13 14  2  0  0  0
 15 16  2  0  0  0
 17 18  2  0  0  0
M  END
> <rmsd>
0.516236603

$$$$
ZINC000012896535 ZINC12896535 CSCC[C@@H](CO)NC(=O)Cc1c(C)c2cc3c(C)coc3cc2oc1=O MCULE-4833014261 MolPort-002-536-305 PubChem-16408420


 27 29  0  0  0  0  0  0  0  0999 V2000
  -52.0239    5.7192  -14.8042 C   0  0  0  0  0
  -52.7883    3.8239  -16.4266 C   0  0  0  0  0
  -53.6271    2.6122  -16.8044 C   0  0  0  0  0
  -53.2901    2.0876  -18.2000 C   0  0  0  0  0
  -53.6530    3.1106  -19.2648 C   0  0  0  0  0
  -51.2999    0.6325  -17.5981 C   0  0  0  0  0
  -49.8463    0.3397  -17.7526 C   0  0  0  0  0
  -49.5944   -0.4235  -19.0219 C   0  0  0  0  0
  -49.2736    0.2459  -20.2169 C   0  0  0  0  0
  -49.1443    1.7397  -20.2386 C   0  0  0  0  0
  -49.0709   -0.5047  -21.3858 C   0  0  0  0  0
  -48.7471    0.1108  -22.6148 C   0  0  0  0  0
  -48.5647   -0.7136  -23.7214 C   0  0  0  0  0
  -48.6883   -2.0715  -23.6487 C   0  0  0  0  0
  -48.1993   -1.6528  -25.6887 C   0  0  0  0  0
  -48.2504   -0.4304  -25.0271 C   0  0  0  0  0
  -48.0107    0.9106  -25.6263 C   0  0  0  0  0
  -49.0060   -2.7180  -22.4579 C   0  0  0  0  0
  -49.1997   -1.9240  -21.3125 C   0  0  0  0  0
  -49.7032   -1.8259  -19.0373 C   0  0  0  0  0
  -53.2281    4.3639  -14.7529 S   0  0  0  0  0
  -53.5366    2.5390  -20.5321 O   0  0  0  0  0
  -52.0125   -0.1127  -16.8740 O   0  0  0  0  0
  -48.4692   -2.6162  -24.8216 O   0  0  0  0  0
  -49.5045   -2.5083  -20.1603 O   0  0  0  0  0
  -49.9905   -2.4531  -17.9828 O   0  0  0  0  0
  -51.8786    1.7336  -18.3019 N   0  0  0  0  0
  1 21  1  0  0  0
  2 21  1  0  0  0
  2  3  1  0  0  0
  4  3  1  0  0  0
  4  5  1  0  0  0
  4 27  1  0  0  0
  5 22  1  0  0  0
  7  6  1  0  0  0
  7  8  1  0  0  0
  9 11  1  0  0  0
 10  9  1  0  0  0
 12 13  1  0  0  0
 14 24  1  0  0  0
 14 18  1  0  0  0
 15 24  1  0  0  0
 16 13  1  0  0  0
 17 16  1  0  0  0
 19 25  1  0  0  0
 19 11  1  0  0  0
 20 25  1  0  0  0
 20  8  1  0  0  0
 27  6  1  0  0  0
  6 23  2  0  0  0
  8  9  2  0  0  0
 11 12  2  0  0  0
 13 14  2  0  0  0
 15 16  2  0  0  0
 18 19  2  0  0  0
 20 26  2  0  0  0
M  END
> <rmsd>
0.676678419

$$$$
ZINC000493967026


 32 35  0  0  0  0  0  0  0  0999 V2000
  -48.0735   -1.3791  -25.9833 C   0  0  0  0  0
  -48.5580   -0.0747  -23.9383 C   0  0  0  0  0
  -48.4859    1.1529  -23.2716 C   0  0  0  0  0
  -48.9922    1.2839  -21.9753 C   0  0  0  0  0
  -49.5742    0.1868  -21.3328 C   0  0  0  0  0
  -50.1161    0.3568  -19.9462 C   0  0  0  0  0
  -51.6416    0.1438  -19.9232 C   0  0  0  0  0
  -52.3424    1.4108  -19.5598 C   0  0  0  0  0
  -52.7226    3.2885  -17.9197 C   0  0  0  0  0
  -52.2258    3.7100  -16.5828 C   0  0  0  0  0
  -52.0498    3.8784  -14.4640 C   0  0  0  0  0
  -51.0075    4.5468  -15.0755 C   0  0  0  0  0
  -49.9254    5.2718  -14.3880 C   0  0  0  0  0
  -48.9198    5.9062  -15.1312 C   0  0  0  0  0
  -47.8904    6.5952  -14.4833 C   0  0  0  0  0
  -47.8596    6.6543  -13.0873 C   0  0  0  0  0
  -48.8581    6.0246  -12.3390 C   0  0  0  0  0
  -48.8269    6.0851  -10.9052 C   0  0  0  0  0
  -49.8875    5.3356  -12.9871 C   0  0  0  0  0
  -51.9446   -0.9574  -18.8982 C   0  0  0  0  0
  -50.6045   -1.3585  -18.4279 C   0  0  0  0  0
  -48.1796   -0.6393  -18.5904 C   0  0  0  0  0
  -49.6515   -1.0455  -21.9983 C   0  0  0  0  0
  -49.1451   -1.1758  -23.2940 C   0  0  0  0  0
  -48.0422   -0.1724  -25.2334 O   0  0  0  0  0
  -53.1703    1.9115  -20.3666 O   0  0  0  0  0
  -50.4062   -2.2457  -17.5566 O   0  0  0  0  0
  -52.0711    2.0497  -18.3103 N   0  0  0  0  0
  -52.8194    3.3433  -15.4299 N   0  0  0  0  0
  -48.8017    6.1338   -9.7492 N   0  0  0  0  0
  -51.1076    4.4399  -16.4130 N   0  0  0  0  0
  -49.5614   -0.6329  -19.0418 N   0  0  0  0  0
  1 25  1  0  0  0
  2 25  1  0  0  0
  3  4  1  0  0  0
  5 23  1  0  0  0
  6  5  1  0  0  0
  6  7  1  0  0  0
  6 32  1  0  0  0
  7  8  1  0  0  0
  7 20  1  0  0  0
  8 28  1  0  0  0
  9 28  1  0  0  0
  9 10  1  0  0  0
 11 29  1  0  0  0
 12 13  1  0  0  0
 12 31  1  0  0  0
 14 15  1  0  0  0
 16 17  1  0  0  0
 17 18  1  0  0  0
 19 13  1  0  0  0
 20 21  1  0  0  0
 21 32  1  0  0  0
 22 32  1  0  0  0
 24  2  1  0  0  0
 31 10  1  0  0  0
  2  3  2  0  0  0
  4  5  2  0  0  0
  8 26  2  0  0  0
 10 29  2  0  0  0
 11 12  2  0  0  0
 13 14  2  0  0  0
 15 16  2  0  0  0
 17 19  2  0  0  0
 21 27  2  0  0  0
 23 24  2  0  0  0
 18 30  3  0  0  0
M  END
> <rmsd>
0.536080122

$$$$
ZINC000493967026


 32 35  0  0  0  0  0  0  0  0999 V2000
  -48.0775   -1.3816  -25.9849 C   0  0  0  0  0
  -48.5619   -0.0759  -23.9407 C   0  0  0  0  0
  -48.4935    1.1531  -23.2763 C   0  0  0  0  0
  -48.9975    1.2842  -21.9790 C   0  0  0  0  0
  -49.5734    0.1859  -21.3333 C   0  0  0  0  0
  -50.1142    0.3563  -19.9464 C   0  0  0  0  0
  -51.6398    0.1444  -19.9228 C   0  0  0  0  0
  -52.3401    1.4118  -19.5604 C   0  0  0  0  0
  -52.7262    3.2866  -17.9186 C   0  0  0  0  0
  -52.2389    3.7032  -16.5765 C   0  0  0  0  0
  -51.0348    4.6052  -15.0649 C   0  0  0  0  0
  -52.0206    3.8344  -14.4811 C   0  0  0  0  0
  -52.2272    3.6476  -13.0348 C   0  0  0  0  0
  -51.3895    4.2833  -12.1061 C   0  0  0  0  0
  -51.5899    4.1021  -10.7344 C   0  0  0  0  0
  -52.6289    3.2844  -10.2820 C   0  0  0  0  0
  -53.4678    2.6475  -11.2009 C   0  0  0  0  0
  -54.5350    1.8073  -10.7367 C   0  0  0  0  0
  -53.2673    2.8288  -12.5726 C   0  0  0  0  0
  -51.9433   -0.9561  -18.8972 C   0  0  0  0  0
  -50.6033   -1.3585  -18.4275 C   0  0  0  0  0
  -48.1777   -0.6420  -18.5921 C   0  0  0  0  0
  -49.6472   -1.0479  -21.9965 C   0  0  0  0  0
  -49.1432   -1.1783  -23.2932 C   0  0  0  0  0
  -48.0486   -0.1737  -25.2368 O   0  0  0  0  0
  -53.1674    1.9125  -20.3678 O   0  0  0  0  0
  -50.4052   -2.2457  -17.5563 O   0  0  0  0  0
  -52.0702    2.0506  -18.3105 N   0  0  0  0  0
  -51.1765    4.5131  -16.4002 N   0  0  0  0  0
  -55.3955    1.1299  -10.3626 N   0  0  0  0  0
  -52.7813    3.2563  -15.4285 N   0  0  0  0  0
  -49.5600   -0.6339  -19.0422 N   0  0  0  0  0
  1 25  1  0  0  0
  2 25  1  0  0  0
  3  4  1  0  0  0
  5 23  1  0  0  0
  6  5  1  0  0  0
  6  7  1  0  0  0
  6 32  1  0  0  0
  7  8  1  0  0  0
  7 20  1  0  0  0
  8 28  1  0  0  0
  9 28  1  0  0  0
  9 10  1  0  0  0
 11 29  1  0  0  0
 12 13  1  0  0  0
 12 31  1  0  0  0
 14 15  1  0  0  0
 16 17  1  0  0  0
 17 18  1  0  0  0
 19 13  1  0  0  0
 20 21  1  0  0  0
 21 32  1  0  0  0
 22 32  1  0  0  0
 24  2  1  0  0  0
 31 10  1  0  0  0
  2  3  2  0  0  0
  4  5  2  0  0  0
  8 26  2  0  0  0
 10 29  2  0  0  0
 11 12  2  0  0  0
 13 14  2  0  0  0
 15 16  2  0  0  0
 17 19  2  0  0  0
 21 27  2  0  0  0
 23 24  2  0  0  0
 18 30  3  0  0  0
M  END
> <rmsd>
0.535197079

$$$$
ZINC000408607104 PubChem-125618484


 30 32  0  0  0  0  0  0  0  0999 V2000
  -52.3113    4.4274  -15.5017 C   0  0  0  0  0
  -51.7305    3.2713  -16.2879 C   0  0  0  0  0
  -52.5108    3.0927  -17.5728 C   0  0  0  0  0
  -52.4892    1.5788  -19.5879 C   0  0  0  0  0
  -51.8886    0.4506  -20.3079 C   0  0  0  0  0
  -49.3921   -2.2732  -19.9007 C   0  0  0  0  0
  -49.5848   -2.7518  -18.5199 C   0  0  0  0  0
  -48.9487   -4.5267  -16.7788 C   0  0  0  0  0
  -49.7479   -3.9999  -15.7540 C   0  0  0  0  0
  -49.7854   -4.6154  -14.5005 C   0  0  0  0  0
  -49.0256   -5.7628  -14.2570 C   0  0  0  0  0
  -49.0883   -6.3947  -12.9089 C   0  0  0  0  0
  -48.2220   -6.2964  -15.2795 C   0  0  0  0  0
  -48.1896   -5.6748  -16.5318 C   0  0  0  0  0
  -48.5692   -2.9054  -20.8376 C   0  0  0  0  0
  -48.6757   -2.1100  -21.9635 C   0  0  0  0  0
  -48.0315   -2.2311  -23.1922 C   0  0  0  0  0
  -48.2704   -1.2367  -24.1574 C   0  0  0  0  0
  -49.1205   -0.1485  -23.8680 C   0  0  0  0  0
  -49.7540   -0.0498  -22.6171 C   0  0  0  0  0
  -49.5226   -1.0670  -21.6895 C   0  0  0  0  0
  -51.9532    1.9830  -18.3267 N   0  0  0  0  0
  -50.7844   -0.2528  -19.7292 N   0  0  0  0  0
  -49.9825   -1.1729  -20.4303 N   0  0  0  0  0
  -48.8835   -3.9234  -18.0782 N   0  0  0  0  0
  -53.4753    2.1887  -20.0838 O   0  0  0  0  0
  -52.3776    0.0769  -21.4077 O   0  0  0  0  0
  -50.3607   -2.1356  -17.7414 O   0  0  0  0  0
  -47.2470   -7.7364  -15.0281 Cl  0  0  0  0  0
  -47.4916   -1.3391  -25.7212 Cl  0  0  0  0  0
  1  2  1  0  0  0
  2  3  1  0  0  0
  3 22  1  0  0  0
  4  5  1  0  0  0
  5 23  1  0  0  0
  6  7  1  0  0  0
  7 25  1  0  0  0
  9 10  1  0  0  0
 11 13  1  0  0  0
 12 11  1  0  0  0
 13 29  1  0  0  0
 14  8  1  0  0  0
 15 16  1  0  0  0
 17 18  1  0  0  0
 18 30  1  0  0  0
 19 20  1  0  0  0
 21 24  1  0  0  0
 21 16  1  0  0  0
 22  4  1  0  0  0
 23 24  1  0  0  0
 24  6  1  0  0  0
 25  8  1  0  0  0
  4 26  2  0  0  0
  5 27  2  0  0  0
  6 15  2  0  0  0
  7 28  2  0  0  0
  8  9  2  0  0  0
 10 11  2  0  0  0
 13 14  2  0  0  0
 16 17  2  0  0  0
 18 19  2  0  0  0
 20 21  2  0  0  0
M  END
> <rmsd>
0.689800918

$$$$
ZINC000096134108 PubChem-97435384


 32 34  0  0  0  0  0  0  0  0999 V2000
  -51.4652    2.6406  -12.2486 C   0  0  0  0  0
  -51.3342    3.8522  -14.4413 C   0  0  0  0  0
  -50.5362    4.6936  -15.2208 C   0  0  0  0  0
  -50.9376    5.0874  -16.4925 C   0  0  0  0  0
  -52.1424    4.6269  -17.0109 C   0  0  0  0  0
  -52.9608    3.7637  -16.2709 C   0  0  0  0  0
  -52.5827    3.3985  -14.9480 C   0  0  0  0  0
  -54.8009    2.4779  -14.2118 C   0  0  0  0  0
  -54.2258    3.3069  -16.8787 C   0  0  0  0  0
  -54.3952    2.8167  -18.1135 C   0  0  0  0  0
  -53.3433    2.4886  -19.0902 C   0  0  0  0  0
  -50.9483    1.8326  -19.5967 C   0  0  0  0  0
  -51.1332    0.3662  -19.9800 C   0  0  0  0  0
  -50.2598   -0.0289  -21.1460 C   0  0  0  0  0
  -48.8645    0.1220  -21.1088 C   0  0  0  0  0
  -48.0874   -0.2390  -22.2128 C   0  0  0  0  0
  -48.6998   -0.7477  -23.3614 C   0  0  0  0  0
  -50.0893   -0.8914  -23.4076 C   0  0  0  0  0
  -50.8667   -0.5305  -22.3032 C   0  0  0  0  0
  -51.5213   -1.8597  -19.1742 C   0  0  0  0  0
  -51.3551   -2.8065  -17.9836 C   0  0  0  0  0
  -49.6227   -1.6211  -17.1421 C   0  0  0  0  0
  -49.6756   -0.5974  -18.2776 C   0  0  0  0  0
  -50.8355    3.5169  -13.1722 O   0  0  0  0  0
  -53.3851    2.5818  -14.1320 O   0  0  0  0  0
  -53.6634    2.3525  -20.3008 O   0  0  0  0  0
  -49.9965   -2.8879  -17.6270 O   0  0  0  0  0
  -55.2346    1.4699  -13.3728 F   0  0  0  0  0
  -55.3784    3.6737  -13.8266 F   0  0  0  0  0
  -51.9949    2.2508  -18.6756 N   0  0  0  0  0
  -51.0443   -0.5223  -18.8074 N   0  0  0  0  0
  -47.7271   -1.2004  -24.7439 Cl  0  0  0  0  0
  1 24  1  0  0  0
  2 24  1  0  0  0
  3  4  1  0  0  0
  5  6  1  0  0  0
  6  9  1  0  0  0
  7 25  1  0  0  0
  7  2  1  0  0  0
  8 25  1  0  0  0
  8 28  1  0  0  0
  8 29  1  0  0  0
 10 11  1  0  0  0
 11 30  1  0  0  0
 12 30  1  0  0  0
 13 12  1  0  0  0
 13 14  1  0  0  0
 13 31  1  0  0  0
 15 16  1  0  0  0
 17 18  1  0  0  0
 17 32  1  0  0  0
 19 14  1  0  0  0
 20 31  1  0  0  0
 20 21  1  0  0  0
 21 27  1  0  0  0
 22 27  1  0  0  0
 22 23  1  0  0  0
 23 31  1  0  0  0
  2  3  2  0  0  0
  4  5  2  0  0  0
  6  7  2  0  0  0
  9 10  2  0  0  0
 11 26  2  0  0  0
 14 15  2  0  0  0
 16 17  2  0  0  0
 18 19  2  0  0  0
M  END
> <rmsd>
0.540304661

$$$$
ZINC000011118204 ZINC11118204 ChemDiv-D289-0016 MCULE-3876804959 MolPort-006-798-638 PubChem-17200660


 26 28  0  0  0  0  0  0  0  0999 V2000
  -47.5828   -1.3910  -24.9391 C   0  0  0  0  0
  -48.3211   -0.1073  -24.6059 C   0  0  0  0  0
  -48.9690   -0.2061  -23.2669 C   0  0  0  0  0
  -50.3568   -0.1819  -23.1691 C   0  0  0  0  0
  -50.9667   -0.2558  -21.9189 C   0  0  0  0  0
  -50.2069   -0.3522  -20.7398 C   0  0  0  0  0
  -52.3245   -0.1625  -19.3586 C   0  0  0  0  0
  -52.5985    1.2983  -19.4792 C   0  0  0  0  0
  -52.2813    3.6369  -18.5927 C   0  0  0  0  0
  -51.5429    4.3330  -17.4653 C   0  0  0  0  0
  -51.2187    4.4853  -15.2891 C   0  0  0  0  0
  -48.3612   -0.7146  -18.3443 C   0  0  0  0  0
  -47.8821   -0.4514  -19.6429 C   0  0  0  0  0
  -46.4961   -0.2725  -19.8156 C   0  0  0  0  0
  -45.6169   -0.3496  -18.7335 C   0  0  0  0  0
  -46.1084   -0.6103  -17.4552 C   0  0  0  0  0
  -47.4776   -0.7931  -17.2619 C   0  0  0  0  0
  -48.7856   -0.3698  -20.8322 C   0  0  0  0  0
  -48.1955   -0.2911  -22.1075 C   0  0  0  0  0
  -50.8924   -0.4222  -19.4740 N   0  0  0  0  0
  -52.0514    2.2033  -18.5204 N   0  0  0  0  0
  -53.3099    1.7220  -20.4285 O   0  0  0  0  0
  -52.1057    3.9803  -16.2385 O   0  0  0  0  0
  -50.3451   -2.4102  -17.8196 O   0  0  0  0  0
  -50.4951   -0.1349  -16.8794 O   0  0  0  0  0
  -50.0609   -0.9550  -18.0621 S   0  0  0  0  0
  1  2  1  0  0  0
  2  3  1  0  0  0
  4  5  1  0  0  0
  6 20  1  0  0  0
  7 20  1  0  0  0
  7  8  1  0  0  0
  8 21  1  0  0  0
  9 21  1  0  0  0
  9 10  1  0  0  0
 10 23  1  0  0  0
 11 23  1  0  0  0
 13 14  1  0  0  0
 13 18  1  0  0  0
 15 16  1  0  0  0
 17 12  1  0  0  0
 18  6  1  0  0  0
 19  3  1  0  0  0
 26 20  1  0  0  0
 26 12  1  0  0  0
  3  4  2  0  0  0
  5  6  2  0  0  0
  8 22  2  0  0  0
 12 13  2  0  0  0
 14 15  2  0  0  0
 16 17  2  0  0  0
 18 19  2  0  0  0
 26 24  2  0  0  0
 26 25  2  0  0  0
M  END
> <rmsd>
0.622535467

$$$$
ZINC000019936622 CSC046228778 PubChem-28463439


 29 31  0  0  0  0  0  0  0  0999 V2000
  -48.4037   -1.7012  -24.3244 C   0  0  0  0  0
  -49.6982   -0.3117  -22.6744 C   0  0  0  0  0
  -49.4806    0.8550  -21.9943 C   0  0  0  0  0
  -50.4217    1.3859  -21.1183 C   0  0  0  0  0
  -51.6256    0.6732  -20.9513 C   0  0  0  0  0
  -51.8477   -0.5338  -21.6565 C   0  0  0  0  0
  -50.8751   -1.0442  -22.5362 C   0  0  0  0  0
  -51.2804    0.8135  -17.5558 C   0  0  0  0  0
  -51.0539   -0.4922  -18.0073 C   0  0  0  0  0
  -50.2557   -1.3926  -17.2893 C   0  0  0  0  0
  -49.6697   -0.9718  -16.0741 C   0  0  0  0  0
  -49.8988    0.3313  -15.6246 C   0  0  0  0  0
  -50.6936    1.2363  -16.3426 C   0  0  0  0  0
  -50.8785    2.6010  -15.7902 C   0  0  0  0  0
  -51.8520    4.8582  -15.9572 C   0  0  0  0  0
  -48.5202   -3.1373  -15.5701 C   0  0  0  0  0
  -50.5956   -3.1515  -19.0032 C   0  0  0  0  0
  -47.7919    0.4639  -23.1767 C   0  0  0  0  0
  -48.6242   -0.5723  -23.4346 N   0  0  0  0  0
  -52.0946    1.7039  -18.3297 N   0  0  0  0  0
  -52.8391    1.2740  -19.8356 S   0  0  0  0  0
  -53.8846    0.2232  -19.5854 O   0  0  0  0  0
  -53.4950    2.4873  -20.4309 O   0  0  0  0  0
  -50.3232    2.9116  -14.6994 O   0  0  0  0  0
  -51.6586    3.5454  -16.4617 O   0  0  0  0  0
  -48.8569   -1.7894  -15.2744 O   0  0  0  0  0
  -50.0448   -2.6874  -17.7773 O   0  0  0  0  0
  -48.2974    1.3279  -22.3119 O   0  0  0  0  0
  -46.6551    0.5943  -23.7032 O   0  0  0  0  0
  1 19  1  0  0  0
  3  4  1  0  0  0
  3 28  1  0  0  0
  5  6  1  0  0  0
  7  2  1  0  0  0
  9 10  1  0  0  0
 10 27  1  0  0  0
 11 12  1  0  0  0
 11 26  1  0  0  0
 13 14  1  0  0  0
 13  8  1  0  0  0
 14 25  1  0  0  0
 15 25  1  0  0  0
 16 26  1  0  0  0
 17 27  1  0  0  0
 18 28  1  0  0  0
 18 19  1  0  0  0
 19  2  1  0  0  0
 20  8  1  0  0  0
 21  5  1  0  0  0
 21 20  1  0  0  0
  2  3  2  0  0  0
  4  5  2  0  0  0
  6  7  2  0  0  0
  8  9  2  0  0  0
 10 11  2  0  0  0
 12 13  2  0  0  0
 14 24  2  0  0  0
 18 29  2  0  0  0
 21 22  2  0  0  0
 21 23  2  0  0  0
M  END
> <rmsd>
0.673616767

$$$$
ZINC000096181338 ZINC96181338 PubChem-97457210


 24 26  0  0  0  0  0  0  0  0999 V2000
  -48.2376   -0.6561  -25.4181 C   0  0  0  0  0
  -48.7313   -0.4429  -24.0330 C   0  0  0  0  0
  -49.3224   -1.4978  -23.3317 C   0  0  0  0  0
  -49.7869   -1.2972  -22.0286 C   0  0  0  0  0
  -49.6596   -0.0383  -21.4210 C   0  0  0  0  0
  -49.0700    1.0148  -22.1287 C   0  0  0  0  0
  -48.6058    0.8131  -23.4319 C   0  0  0  0  0
  -50.1561    0.2063  -20.0287 C   0  0  0  0  0
  -51.6850    0.0345  -19.9532 C   0  0  0  0  0
  -51.9851   -1.0119  -18.8715 C   0  0  0  0  0
  -50.6421   -1.4272  -18.4221 C   0  0  0  0  0
  -48.2057   -0.7805  -18.6858 C   0  0  0  0  0
  -52.3435    1.3341  -19.6280 C   0  0  0  0  0
  -52.6338    3.2902  -18.0626 C   0  0  0  0  0
  -52.0957    3.7592  -16.7574 C   0  0  0  0  0
  -52.7117    3.3800  -15.5625 C   0  0  0  0  0
  -52.1822    3.8059  -14.3429 C   0  0  0  0  0
  -51.0354    4.6039  -14.3388 C   0  0  0  0  0
  -50.9454    4.5515  -16.7113 C   0  0  0  0  0
  -50.4404   -2.2802  -17.5180 O   0  0  0  0  0
  -53.1819    1.8197  -20.4331 O   0  0  0  0  0
  -49.5999   -0.7570  -19.0971 N   0  0  0  0  0
  -52.0211    2.0202  -18.4163 N   0  0  0  0  0
  -50.4448    4.9564  -15.5129 N   0  0  0  0  0
  1  2  1  0  0  0
  3  4  1  0  0  0
  5  6  1  0  0  0
  7  2  1  0  0  0
  8  5  1  0  0  0
  8  9  1  0  0  0
  8 22  1  0  0  0
  9 10  1  0  0  0
  9 13  1  0  0  0
 10 11  1  0  0  0
 11 22  1  0  0  0
 12 22  1  0  0  0
 13 23  1  0  0  0
 14 23  1  0  0  0
 14 15  1  0  0  0
 16 17  1  0  0  0
 18 24  1  0  0  0
 19 15  1  0  0  0
  2  3  2  0  0  0
  4  5  2  0  0  0
  6  7  2  0  0  0
 11 20  2  0  0  0
 13 21  2  0  0  0
 15 16  2  0  0  0
 17 18  2  0  0  0
 19 24  2  0  0  0
M  END
> <rmsd>
0.459117591

$$$$
ZINC000072242201 ZINC72242201 PubChem-95740415


 24 26  0  0  0  0  0  0  0  0999 V2000
  -51.9138    5.3694  -14.9785 C   0  0  0  0  0
  -52.4403    4.8721  -16.2763 C   0  0  0  0  0
  -53.3842    5.6229  -16.9792 C   0  0  0  0  0
  -53.8670    5.1409  -18.1961 C   0  0  0  0  0
  -53.4038    3.9219  -18.6932 C   0  0  0  0  0
  -52.4555    3.1921  -17.9625 C   0  0  0  0  0
  -52.3036    1.2602  -19.6454 C   0  0  0  0  0
  -51.6679   -0.0468  -19.9851 C   0  0  0  0  0
  -51.9750   -1.0982  -18.9106 C   0  0  0  0  0
  -50.6352   -1.5667  -18.5054 C   0  0  0  0  0
  -50.1370    0.0992  -20.0742 C   0  0  0  0  0
  -49.6602   -0.0946  -21.4814 C   0  0  0  0  0
  -49.8591   -1.3092  -22.1562 C   0  0  0  0  0
  -49.4063   -1.4648  -23.4694 C   0  0  0  0  0
  -48.7545   -0.4090  -24.1134 C   0  0  0  0  0
  -48.5552    0.8022  -23.4444 C   0  0  0  0  0
  -49.0076    0.9586  -22.1309 C   0  0  0  0  0
  -48.1847   -1.0018  -18.8252 C   0  0  0  0  0
  -52.0016    3.6861  -16.7779 N   0  0  0  0  0
  -51.9474    1.9350  -18.4291 N   0  0  0  0  0
  -49.5889   -0.9131  -19.1911 N   0  0  0  0  0
  -53.1468    1.7532  -20.4403 O   0  0  0  0  0
  -50.4386   -2.4475  -17.6275 O   0  0  0  0  0
  -48.3153   -0.5601  -25.3857 F   0  0  0  0  0
  1  2  1  0  0  0
  2 19  1  0  0  0
  3  4  1  0  0  0
  5  6  1  0  0  0
  6 20  1  0  0  0
  8  7  1  0  0  0
  8  9  1  0  0  0
  9 10  1  0  0  0
 10 21  1  0  0  0
 11 21  1  0  0  0
 11 12  1  0  0  0
 11  8  1  0  0  0
 13 14  1  0  0  0
 15 16  1  0  0  0
 15 24  1  0  0  0
 17 12  1  0  0  0
 18 21  1  0  0  0
 20  7  1  0  0  0
  2  3  2  0  0  0
  4  5  2  0  0  0
  6 19  2  0  0  0
  7 22  2  0  0  0
 10 23  2  0  0  0
 12 13  2  0  0  0
 14 15  2  0  0  0
 16 17  2  0  0  0
M  END
> <rmsd>
0.580491364

$$$$
ZINC000020135693 ZINC20135693 PubChem-92655552


 25 27  0  0  0  0  0  0  0  0999 V2000
  -47.6108   -0.9763  -24.5473 C   0  0  0  0  0
  -48.7115   -1.0681  -23.5533 C   0  0  0  0  0
  -48.5328   -0.5586  -22.2639 C   0  0  0  0  0
  -49.5683   -0.6449  -21.3291 C   0  0  0  0  0
  -50.7894   -1.2404  -21.6813 C   0  0  0  0  0
  -50.9612   -1.7515  -22.9724 C   0  0  0  0  0
  -49.9250   -1.6650  -23.9073 C   0  0  0  0  0
  -51.9141   -1.3545  -20.6967 C   0  0  0  0  0
  -51.6120   -2.3945  -19.6082 C   0  0  0  0  0
  -50.8292   -1.7869  -18.4895 C   0  0  0  0  0
  -51.8240    0.4169  -19.0122 C   0  0  0  0  0
  -52.9622    2.6889  -19.2804 C   0  0  0  0  0
  -53.2270    4.0116  -18.6873 C   0  0  0  0  0
  -54.0080    4.9538  -19.3715 C   0  0  0  0  0
  -54.2578    6.2075  -18.8074 C   0  0  0  0  0
  -53.7286    6.5289  -17.5549 C   0  0  0  0  0
  -52.9477    5.6009  -16.8592 C   0  0  0  0  0
  -52.6999    4.3424  -17.4311 C   0  0  0  0  0
  -51.6302    5.0710  -14.8342 C   0  0  0  0  0
  -50.0438   -2.4944  -17.8079 O   0  0  0  0  0
  -53.4406    2.4029  -20.4120 O   0  0  0  0  0
  -52.4326    5.9520  -15.6085 O   0  0  0  0  0
  -50.9989   -0.4046  -18.1826 N   0  0  0  0  0
  -52.2694   -0.0393  -20.1481 N   0  0  0  0  0
  -52.1599    1.7363  -18.5671 N   0  0  0  0  0
  1  2  1  0  0  0
  3  4  1  0  0  0
  5  6  1  0  0  0
  7  2  1  0  0  0
  8  5  1  0  0  0
  8  9  1  0  0  0
  8 24  1  0  0  0
  9 10  1  0  0  0
 10 23  1  0  0  0
 11 25  1  0  0  0
 12 13  1  0  0  0
 14 15  1  0  0  0
 16 17  1  0  0  0
 17 22  1  0  0  0
 18 13  1  0  0  0
 19 22  1  0  0  0
 23 11  1  0  0  0
 25 12  1  0  0  0
  2  3  2  0  0  0
  4  5  2  0  0  0
  6  7  2  0  0  0
 10 20  2  0  0  0
 11 24  2  0  0  0
 12 21  2  0  0  0
 13 14  2  0  0  0
 15 16  2  0  0  0
 17 18  2  0  0  0
M  END
> <rmsd>
0.665339649

$$$$
ZINC000004799960 ZINC04799960 PubChem-92235474


 34 37  0  0  0  0  0  0  0  0999 V2000
  -48.0909   -1.6318  -25.9549 C   0  0  0  0  0
  -48.6241   -0.2140  -24.0000 C   0  0  0  0  0
  -48.6622    1.0677  -23.4420 C   0  0  0  0  0
  -49.1384    1.2588  -22.1420 C   0  0  0  0  0
  -49.5801    0.1682  -21.3867 C   0  0  0  0  0
  -49.5565   -1.1176  -21.9471 C   0  0  0  0  0
  -49.0772   -1.3081  -23.2454 C   0  0  0  0  0
  -50.0977    0.4026  -19.9983 C   0  0  0  0  0
  -51.6192    0.1802  -19.9585 C   0  0  0  0  0
  -51.9047   -0.9250  -18.9387 C   0  0  0  0  0
  -50.5615   -1.2988  -18.4563 C   0  0  0  0  0
  -48.1172   -0.5949  -18.7059 C   0  0  0  0  0
  -47.6042   -1.6438  -17.9268 C   0  0  0  0  0
  -46.2428   -1.7015  -17.6177 C   0  0  0  0  0
  -45.3703   -0.7153  -18.0859 C   0  0  0  0  0
  -45.8761    0.3379  -18.8643 C   0  0  0  0  0
  -47.2378    0.3943  -19.1711 C   0  0  0  0  0
  -43.0522    0.1356  -18.2280 C   0  0  0  0  0
  -52.3259    1.4411  -19.5868 C   0  0  0  0  0
  -52.6992    3.3222  -17.9497 C   0  0  0  0  0
  -52.3695    3.6398  -16.5303 C   0  0  0  0  0
  -51.1776    4.3145  -16.2395 C   0  0  0  0  0
  -50.8377    4.6051  -14.9158 C   0  0  0  0  0
  -51.6870    4.2212  -13.8761 C   0  0  0  0  0
  -52.8740    3.5402  -14.1594 C   0  0  0  0  0
  -53.2231    3.2393  -15.4876 C   0  0  0  0  0
  -55.3178    2.1150  -14.7906 C   0  0  0  0  0
  -48.1393   -0.3714  -25.3012 O   0  0  0  0  0
  -50.3678   -2.2012  -17.6003 O   0  0  0  0  0
  -44.0125   -0.8055  -17.7666 O   0  0  0  0  0
  -53.1621    1.9372  -20.3880 O   0  0  0  0  0
  -54.4043    2.5510  -15.7889 O   0  0  0  0  0
  -49.5174   -0.5392  -19.0479 N   0  0  0  0  0
  -52.0570    2.0761  -18.3346 N   0  0  0  0  0
  1 28  1  0  0  0
  2 28  1  0  0  0
  3  4  1  0  0  0
  5  6  1  0  0  0
  7  2  1  0  0  0
  8  5  1  0  0  0
  8  9  1  0  0  0
  8 33  1  0  0  0
  9 10  1  0  0  0
  9 19  1  0  0  0
 10 11  1  0  0  0
 11 33  1  0  0  0
 13 14  1  0  0  0
 15 16  1  0  0  0
 15 30  1  0  0  0
 17 12  1  0  0  0
 18 30  1  0  0  0
 19 34  1  0  0  0
 20 34  1  0  0  0
 20 21  1  0  0  0
 22 23  1  0  0  0
 24 25  1  0  0  0
 26 32  1  0  0  0
 26 21  1  0  0  0
 27 32  1  0  0  0
 33 12  1  0  0  0
  2  3  2  0  0  0
  4  5  2  0  0  0
  6  7  2  0  0  0
 11 29  2  0  0  0
 12 13  2  0  0  0
 14 15  2  0  0  0
 16 17  2  0  0  0
 19 31  2  0  0  0
 21 22  2  0  0  0
 23 24  2  0  0  0
 25 26  2  0  0  0
M  END
> <rmsd>
0.497167349

$$$$
ZINC000065211166 MolPort-010-919-017


 27 29  0  0  0  0  0  0  0  0999 V2000
  -48.4497   -1.3131  -25.0572 C   0  0  0  0  0
  -48.8882   -1.1806  -23.6429 C   0  0  0  0  0
  -49.3821   -1.5875  -21.6542 C   0  0  0  0  0
  -49.6173   -2.3024  -20.3753 C   0  0  0  0  0
  -49.9411   -1.6658  -19.1494 C   0  0  0  0  0
  -51.8628    0.0940  -19.3142 C   0  0  0  0  0
  -52.3965    1.4827  -19.3149 C   0  0  0  0  0
  -52.8338    3.6329  -18.0732 C   0  0  0  0  0
  -52.6256    4.1948  -16.6991 C   0  0  0  0  0
  -51.4016    4.8072  -16.3580 C   0  0  0  0  0
  -50.2931    4.9431  -17.3475 C   0  0  0  0  0
  -51.2064    5.3050  -15.0667 C   0  0  0  0  0
  -52.2151    5.1957  -14.1086 C   0  0  0  0  0
  -51.9987    5.7275  -12.7381 C   0  0  0  0  0
  -53.4262    4.5849  -14.4367 C   0  0  0  0  0
  -53.6376    4.0818  -15.7233 C   0  0  0  0  0
  -54.9466    3.4336  -16.0267 C   0  0  0  0  0
  -50.0220   -3.7722  -18.0381 C   0  0  0  0  0
  -49.7040   -4.4388  -19.2173 C   0  0  0  0  0
  -49.5020   -3.6991  -20.3799 C   0  0  0  0  0
  -48.9369   -2.2045  -22.7720 N   0  0  0  0  0
  -49.5913   -0.2701  -21.8536 N   0  0  0  0  0
  -52.3470    2.2637  -18.1205 N   0  0  0  0  0
  -50.1295   -2.4186  -18.0307 N   0  0  0  0  0
  -49.2727   -0.0578  -23.0937 O   0  0  0  0  0
  -52.8957    1.9556  -20.3705 O   0  0  0  0  0
  -50.0775    0.1152  -18.9743 S   0  0  0  0  0
  1  2  1  0  0  0
  2 25  1  0  0  0
  3 21  1  0  0  0
  3  4  1  0  0  0
  4  5  1  0  0  0
  5 27  1  0  0  0
  6 27  1  0  0  0
  6  7  1  0  0  0
  7 23  1  0  0  0
  8 23  1  0  0  0
  8  9  1  0  0  0
 10 12  1  0  0  0
 11 10  1  0  0  0
 13 15  1  0  0  0
 14 13  1  0  0  0
 16  9  1  0  0  0
 17 16  1  0  0  0
 18 24  1  0  0  0
 19 20  1  0  0  0
 22 25  1  0  0  0
  2 21  2  0  0  0
  3 22  2  0  0  0
  5 24  2  0  0  0
  7 26  2  0  0  0
  9 10  2  0  0  0
 12 13  2  0  0  0
 15 16  2  0  0  0
 18 19  2  0  0  0
 20  4  2  0  0  0
M  END
> <rmsd>
0.493137151

$$$$
ZINC000072238206 ZINC72238206 PubChem-95738335


 25 27  0  0  0  0  0  0  0  0999 V2000
  -51.4941    5.0962  -14.1921 C   0  0  0  0  0
  -52.8743    4.5424  -14.4945 C   0  0  0  0  0
  -52.2389    2.9159  -16.2692 C   0  0  0  0  0
  -52.5951    2.7492  -17.5878 C   0  0  0  0  0
  -53.4939    3.7484  -17.9133 C   0  0  0  0  0
  -52.4719    1.5241  -19.8164 C   0  0  0  0  0
  -51.8945    0.3884  -20.6033 C   0  0  0  0  0
  -52.5523   -0.9505  -20.2624 C   0  0  0  0  0
  -52.1831   -1.4230  -18.8615 C   0  0  0  0  0
  -50.7041   -1.3761  -18.6440 C   0  0  0  0  0
  -50.3629    0.3282  -20.4972 C   0  0  0  0  0
  -49.7452   -0.2435  -21.7388 C   0  0  0  0  0
  -49.9476   -1.5834  -22.1032 C   0  0  0  0  0
  -49.3524   -2.0945  -23.2601 C   0  0  0  0  0
  -48.5513   -1.2706  -24.0559 C   0  0  0  0  0
  -48.3440    0.0637  -23.6942 C   0  0  0  0  0
  -48.9391    0.5754  -22.5371 C   0  0  0  0  0
  -47.9184   -1.8139  -25.2857 C   0  0  0  0  0
  -48.5373   -0.1401  -18.8426 C   0  0  0  0  0
  -52.9155    3.9980  -15.8420 N   0  0  0  0  0
  -53.6695    4.4987  -16.8079 N   0  0  0  0  0
  -52.1063    1.7108  -18.4425 N   0  0  0  0  0
  -49.8976   -0.3820  -19.2998 N   0  0  0  0  0
  -53.2953    2.2960  -20.3752 O   0  0  0  0  0
  -50.1804   -2.1899  -17.8373 O   0  0  0  0  0
  1  2  1  0  0  0
  2 20  1  0  0  0
  4  5  1  0  0  0
  4 22  1  0  0  0
  7  6  1  0  0  0
  7  8  1  0  0  0
  8  9  1  0  0  0
  9 10  1  0  0  0
 10 23  1  0  0  0
 11 23  1  0  0  0
 11 12  1  0  0  0
 11  7  1  0  0  0
 13 14  1  0  0  0
 15 16  1  0  0  0
 17 12  1  0  0  0
 18 15  1  0  0  0
 19 23  1  0  0  0
 20  3  1  0  0  0
 20 21  1  0  0  0
 22  6  1  0  0  0
  3  4  2  0  0  0
  5 21  2  0  0  0
  6 24  2  0  0  0
 10 25  2  0  0  0
 12 13  2  0  0  0
 14 15  2  0  0  0
 16 17  2  0  0  0
M  END
> <rmsd>
0.51778394

$$$$
ZINC000096181381 ZINC96181381 PubChem-97457251


 24 26  0  0  0  0  0  0  0  0999 V2000
  -48.2366   -0.6573  -25.4174 C   0  0  0  0  0
  -48.7305   -0.4437  -24.0323 C   0  0  0  0  0
  -49.3214   -1.4985  -23.3308 C   0  0  0  0  0
  -49.7860   -1.2976  -22.0278 C   0  0  0  0  0
  -49.6588   -0.0385  -21.4206 C   0  0  0  0  0
  -49.0694    1.0144  -22.1285 C   0  0  0  0  0
  -48.6051    0.8124  -23.4317 C   0  0  0  0  0
  -50.1554    0.2064  -20.0283 C   0  0  0  0  0
  -51.6844    0.0343  -19.9528 C   0  0  0  0  0
  -51.9843   -1.0120  -18.8711 C   0  0  0  0  0
  -50.6413   -1.4269  -18.4214 C   0  0  0  0  0
  -48.2050   -0.7795  -18.6849 C   0  0  0  0  0
  -52.3429    1.3339  -19.6275 C   0  0  0  0  0
  -52.6325    3.2902  -18.0622 C   0  0  0  0  0
  -52.0935    3.7596  -16.7575 C   0  0  0  0  0
  -50.9390    4.5495  -16.7203 C   0  0  0  0  0
  -50.4182    4.9701  -15.4927 C   0  0  0  0  0
  -51.0478    4.5966  -14.3012 C   0  0  0  0  0
  -52.1970    3.8006  -14.3370 C   0  0  0  0  0
  -52.7182    3.3799  -15.5644 C   0  0  0  0  0
  -50.4395   -2.2796  -17.5171 O   0  0  0  0  0
  -53.1815    1.8194  -20.4325 O   0  0  0  0  0
  -49.5991   -0.7565  -19.0966 N   0  0  0  0  0
  -52.0203    2.0201  -18.4160 N   0  0  0  0  0
  1  2  1  0  0  0
  3  4  1  0  0  0
  5  6  1  0  0  0
  7  2  1  0  0  0
  8  5  1  0  0  0
  8  9  1  0  0  0
  8 23  1  0  0  0
  9 10  1  0  0  0
  9 13  1  0  0  0
 10 11  1  0  0  0
 11 23  1  0  0  0
 12 23  1  0  0  0
 13 24  1  0  0  0
 14 24  1  0  0  0
 14 15  1  0  0  0
 16 17  1  0  0  0
 18 19  1  0  0  0
 20 15  1  0  0  0
  2  3  2  0  0  0
  4  5  2  0  0  0
  6  7  2  0  0  0
 11 21  2  0  0  0
 13 22  2  0  0  0
 15 16  2  0  0  0
 17 18  2  0  0  0
 19 20  2  0  0  0
M  END
> <rmsd>
0.457879096

$$$$
ZINC000002099315 CSCC[C@H](NC(=O)Cc1c(C)c2cc3c(C)coc3cc2oc1=O)C(O)=O MCULE-8114226211 MolPort-002-520-341 PubChem-1755356


 28 30  0  0  0  0  0  0  0  0999 V2000
  -51.8703    5.6084  -16.1115 C   0  0  0  0  0
  -53.5068    3.5460  -16.1399 C   0  0  0  0  0
  -53.6805    3.4067  -17.6452 C   0  0  0  0  0
  -53.4383    1.9733  -18.0965 C   0  0  0  0  0
  -51.4338    0.5968  -17.4266 C   0  0  0  0  0
  -49.9714    0.3321  -17.5399 C   0  0  0  0  0
  -49.6609   -0.3534  -18.8402 C   0  0  0  0  0
  -49.3030    0.3879  -19.9809 C   0  0  0  0  0
  -49.1891    1.8815  -19.9101 C   0  0  0  0  0
  -49.0494   -0.2907  -21.1832 C   0  0  0  0  0
  -48.6870    0.3989  -22.3610 C   0  0  0  0  0
  -48.4555   -0.3572  -23.5065 C   0  0  0  0  0
  -48.5676   -1.7180  -23.5183 C   0  0  0  0  0
  -48.0078   -1.1756  -25.5104 C   0  0  0  0  0
  -48.0962    0.0051  -24.7806 C   0  0  0  0  0
  -47.8483    1.3810  -25.2905 C   0  0  0  0  0
  -48.9221   -2.4361  -22.3802 C   0  0  0  0  0
  -49.1662   -1.7128  -21.1982 C   0  0  0  0  0
  -49.7545   -1.7533  -18.9418 C   0  0  0  0  0
  -54.0316    1.7535  -19.4461 C   0  0  0  0  0
  -51.7642    3.8417  -15.7082 S   0  0  0  0  0
  -52.0120    1.6902  -18.1401 N   0  0  0  0  0
  -52.1527   -0.1614  -16.7226 O   0  0  0  0  0
  -48.2996   -2.1907  -24.7120 O   0  0  0  0  0
  -49.5071   -2.3665  -20.0945 O   0  0  0  0  0
  -50.0747   -2.4436  -17.9374 O   0  0  0  0  0
  -53.5787    2.4792  -20.5417 O   0  0  0  0  0
  -54.9432    0.8996  -19.5955 O   0  0  0  0  0
  1 21  1  0  0  0
  2 21  1  0  0  0
  2  3  1  0  0  0
  4  3  1  0  0  0
  4 22  1  0  0  0
  4 20  1  0  0  0
  6  5  1  0  0  0
  6  7  1  0  0  0
  8 10  1  0  0  0
  9  8  1  0  0  0
 11 12  1  0  0  0
 13 24  1  0  0  0
 13 17  1  0  0  0
 14 24  1  0  0  0
 15 12  1  0  0  0
 16 15  1  0  0  0
 18 25  1  0  0  0
 18 10  1  0  0  0
 19 25  1  0  0  0
 19  7  1  0  0  0
 20 27  1  0  0  0
 22  5  1  0  0  0
  5 23  2  0  0  0
  7  8  2  0  0  0
 10 11  2  0  0  0
 12 13  2  0  0  0
 14 15  2  0  0  0
 17 18  2  0  0  0
 19 26  2  0  0  0
 20 28  2  0  0  0
M  END
> <rmsd>
0.641014695

$$$$
ZINC000020135468 ZINC20135468 PubChem-92655510


 25 27  0  0  0  0  0  0  0  0999 V2000
  -52.4433    4.8066  -14.5996 C   0  0  0  0  0
  -53.4338    5.4132  -16.7832 C   0  0  0  0  0
  -54.1403    6.3496  -17.5442 C   0  0  0  0  0
  -54.4361    6.0902  -18.8850 C   0  0  0  0  0
  -54.0260    4.8906  -19.4723 C   0  0  0  0  0
  -53.3165    3.9408  -18.7236 C   0  0  0  0  0
  -53.0242    4.2091  -17.3789 C   0  0  0  0  0
  -52.8831    2.6752  -19.3410 C   0  0  0  0  0
  -51.6821    0.4429  -19.0198 C   0  0  0  0  0
  -51.4085   -1.2199  -20.7889 C   0  0  0  0  0
  -51.2401   -2.3162  -19.7267 C   0  0  0  0  0
  -50.6818   -1.7501  -18.4605 C   0  0  0  0  0
  -50.1447   -0.9805  -21.5595 C   0  0  0  0  0
  -48.9916   -0.4790  -20.9363 C   0  0  0  0  0
  -47.8303   -0.2554  -21.6813 C   0  0  0  0  0
  -47.8163   -0.5289  -23.0518 C   0  0  0  0  0
  -48.9636   -1.0253  -23.6774 C   0  0  0  0  0
  -50.1255   -1.2490  -22.9325 C   0  0  0  0  0
  -53.1533    5.7016  -15.4449 O   0  0  0  0  0
  -53.1506    2.4453  -20.5522 O   0  0  0  0  0
  -49.9914   -2.4704  -17.6946 O   0  0  0  0  0
  -52.1568    1.7141  -18.5609 N   0  0  0  0  0
  -51.9287    0.0349  -20.2320 N   0  0  0  0  0
  -50.9563   -0.3934  -18.1149 N   0  0  0  0  0
  -48.9502   -1.2887  -25.0059 F   0  0  0  0  0
  1 19  1  0  0  0
  2 19  1  0  0  0
  3  4  1  0  0  0
  5  6  1  0  0  0
  6  8  1  0  0  0
  7  2  1  0  0  0
  8 22  1  0  0  0
 10 23  1  0  0  0
 10 11  1  0  0  0
 10 13  1  0  0  0
 11 12  1  0  0  0
 12 24  1  0  0  0
 14 15  1  0  0  0
 16 17  1  0  0  0
 17 25  1  0  0  0
 18 13  1  0  0  0
 22  9  1  0  0  0
 24  9  1  0  0  0
  2  3  2  0  0  0
  4  5  2  0  0  0
  6  7  2  0  0  0
  8 20  2  0  0  0
  9 23  2  0  0  0
 12 21  2  0  0  0
 13 14  2  0  0  0
 15 16  2  0  0  0
 17 18  2  0  0  0
M  END
> <rmsd>
0.542834938

$$$$
ZINC000005035803 ZINC05035803 PubChem-92248579


 27 29  0  0  0  0  0  0  0  0999 V2000
  -51.7120    4.2933  -12.3396 C   0  0  0  0  0
  -51.9585    4.0623  -13.7877 C   0  0  0  0  0
  -50.9235    4.2427  -14.7109 C   0  0  0  0  0
  -51.1538    4.0186  -16.0719 C   0  0  0  0  0
  -52.4215    3.6166  -16.5113 C   0  0  0  0  0
  -53.4538    3.4303  -15.5855 C   0  0  0  0  0
  -53.2233    3.6558  -14.2250 C   0  0  0  0  0
  -52.6648    3.3450  -17.9536 C   0  0  0  0  0
  -52.3252    1.4476  -19.5827 C   0  0  0  0  0
  -51.6571    0.1589  -19.9320 C   0  0  0  0  0
  -51.9269   -0.9044  -18.8637 C   0  0  0  0  0
  -50.5657   -1.2964  -18.4525 C   0  0  0  0  0
  -50.1317    0.3485  -20.0056 C   0  0  0  0  0
  -49.6300    0.1132  -21.3947 C   0  0  0  0  0
  -49.7115   -1.1520  -21.9897 C   0  0  0  0  0
  -49.2403   -1.3461  -23.2899 C   0  0  0  0  0
  -48.6839   -0.2776  -24.0130 C   0  0  0  0  0
  -48.6052    0.9927  -23.4213 C   0  0  0  0  0
  -49.0806    1.1792  -22.1121 C   0  0  0  0  0
  -47.9357    3.3675  -23.6248 C   0  0  0  0  0
  -48.2200   -1.7146  -25.9762 C   0  0  0  0  0
  -52.0957    2.0552  -18.3098 N   0  0  0  0  0
  -53.0863    1.9954  -20.4238 O   0  0  0  0  0
  -50.3199   -2.1834  -17.5945 O   0  0  0  0  0
  -49.5778   -0.5976  -19.1084 O   0  0  0  0  0
  -48.0520    2.0521  -24.1498 O   0  0  0  0  0
  -48.2072   -0.4547  -25.3168 O   0  0  0  0  0
  1  2  1  0  0  0
  3  4  1  0  0  0
  5  6  1  0  0  0
  7  2  1  0  0  0
  8  5  1  0  0  0
  8 22  1  0  0  0
 10  9  1  0  0  0
 10 11  1  0  0  0
 11 12  1  0  0  0
 12 25  1  0  0  0
 13 25  1  0  0  0
 13 14  1  0  0  0
 13 10  1  0  0  0
 15 16  1  0  0  0
 17 18  1  0  0  0
 17 27  1  0  0  0
 18 26  1  0  0  0
 19 14  1  0  0  0
 20 26  1  0  0  0
 21 27  1  0  0  0
 22  9  1  0  0  0
  2  3  2  0  0  0
  4  5  2  0  0  0
  6  7  2  0  0  0
  9 23  2  0  0  0
 12 24  2  0  0  0
 14 15  2  0  0  0
 16 17  2  0  0  0
 18 19  2  0  0  0
M  END
> <rmsd>
0.519379258

$$$$
ZINC000239637078 PubChem-124725638


 28 30  0  0  0  0  0  0  0  0999 V2000
  -54.3953    1.5024  -16.6774 C   0  0  0  0  0
  -53.4433    2.6783  -16.5660 C   0  0  0  0  0
  -52.9081    3.0693  -17.9417 C   0  0  0  0  0
  -52.3973    1.3899  -19.7622 C   0  0  0  0  0
  -51.5706    0.2504  -20.2620 C   0  0  0  0  0
  -51.8480   -0.9989  -19.4219 C   0  0  0  0  0
  -50.5578   -1.2543  -18.7574 C   0  0  0  0  0
  -48.2055   -0.2643  -18.5071 C   0  0  0  0  0
  -47.4031    0.9162  -19.0312 C   0  0  0  0  0
  -47.4315   -1.5360  -18.8015 C   0  0  0  0  0
  -48.3414   -0.1005  -17.0047 C   0  0  0  0  0
  -50.0705    0.5733  -20.1362 C   0  0  0  0  0
  -49.3932    0.3606  -21.4539 C   0  0  0  0  0
  -48.7898    1.3405  -22.2175 C   0  0  0  0  0
  -48.2152   -1.4979  -24.2864 C   0  0  0  0  0
  -49.2607   -0.8319  -22.1392 C   0  0  0  0  0
  -52.3206    2.3456  -15.5880 C   0  0  0  0  0
  -51.6097    3.9900  -13.8734 C   0  0  0  0  0
  -50.8343    5.1355  -13.8449 C   0  0  0  0  0
  -50.4198    5.3224  -15.1552 C   0  0  0  0  0
  -52.0922    2.0043  -18.5076 N   0  0  0  0  0
  -49.5392   -0.3385  -19.1286 N   0  0  0  0  0
  -48.3026    0.7500  -23.3261 N   0  0  0  0  0
  -48.5915   -0.5390  -23.2651 N   0  0  0  0  0
  -51.6416    3.5522  -15.1405 N   0  0  0  0  0
  -50.9238    4.3374  -15.9209 N   0  0  0  0  0
  -53.3839    1.7795  -20.4421 O   0  0  0  0  0
  -50.3738   -2.2003  -17.9477 O   0  0  0  0  0
  2  1  1  0  0  0
  2  3  1  0  0  0
  2 17  1  0  0  0
  3 21  1  0  0  0
  5  4  1  0  0  0
  5  6  1  0  0  0
  6  7  1  0  0  0
  7 22  1  0  0  0
  8 22  1  0  0  0
  8  9  1  0  0  0
  8 10  1  0  0  0
  8 11  1  0  0  0
 12 22  1  0  0  0
 12 13  1  0  0  0
 12  5  1  0  0  0
 13 14  1  0  0  0
 15 24  1  0  0  0
 17 25  1  0  0  0
 19 20  1  0  0  0
 21  4  1  0  0  0
 24 23  1  0  0  0
 24 16  1  0  0  0
 25 18  1  0  0  0
 25 26  1  0  0  0
  4 27  2  0  0  0
  7 28  2  0  0  0
 14 23  2  0  0  0
 16 13  2  0  0  0
 18 19  2  0  0  0
 20 26  2  0  0  0
M  END
> <rmsd>
0.660534561

$$$$
ZINC000262769186


 29 32  0  0  0  0  0  0  0  0999 V2000
  -48.5906   -0.8832  -25.1921 C   0  0  0  0  0
  -49.3872   -0.0651  -22.9908 C   0  0  0  0  0
  -49.9231   -0.6637  -21.8710 C   0  0  0  0  0
  -50.3779    0.0480  -20.6341 C   0  0  0  0  0
  -51.9014    0.2119  -20.6316 C   0  0  0  0  0
  -52.3375    1.4195  -19.8608 C   0  0  0  0  0
  -52.3623    2.6273  -17.5967 C   0  0  0  0  0
  -53.0850    3.7552  -18.0600 C   0  0  0  0  0
  -53.4081    4.8137  -17.1925 C   0  0  0  0  0
  -52.9914    4.7075  -15.8692 C   0  0  0  0  0
  -52.6167    5.0552  -13.8196 C   0  0  0  0  0
  -52.6197    5.7318  -12.5192 C   0  0  0  0  0
  -52.0292    3.8126  -14.0742 C   0  0  0  0  0
  -52.2942    3.6234  -15.4137 C   0  0  0  0  0
  -51.9603    2.5610  -16.2491 C   0  0  0  0  0
  -52.6116   -1.0675  -20.1898 C   0  0  0  0  0
  -52.1856   -1.5237  -18.7984 C   0  0  0  0  0
  -50.7022   -1.4537  -18.5989 C   0  0  0  0  0
  -48.4701   -0.4337  -19.0877 C   0  0  0  0  0
  -50.0073   -2.0211  -22.1321 C   0  0  0  0  0
  -49.1571   -1.0560  -23.8679 N   0  0  0  0  0
  -52.0235    1.5387  -18.4654 N   0  0  0  0  0
  -49.8723   -0.6208  -19.4300 N   0  0  0  0  0
  -49.5217   -2.2261  -23.3717 N   0  0  0  0  0
  -52.9707    2.3266  -20.4624 O   0  0  0  0  0
  -53.1796    5.5630  -14.9008 O   0  0  0  0  0
  -52.0658    5.1992  -11.5216 O   0  0  0  0  0
  -53.2367    6.9687  -12.3835 O   0  0  0  0  0
  -50.1934   -2.1018  -17.6456 O   0  0  0  0  0
  1 21  1  0  0  0
  3 20  1  0  0  0
  4  3  1  0  0  0
  4  5  1  0  0  0
  4 23  1  0  0  0
  5  6  1  0  0  0
  5 16  1  0  0  0
  6 22  1  0  0  0
  8  9  1  0  0  0
 10 26  1  0  0  0
 11 26  1  0  0  0
 11 12  1  0  0  0
 12 28  1  0  0  0
 13 14  1  0  0  0
 14 10  1  0  0  0
 15  7  1  0  0  0
 16 17  1  0  0  0
 17 18  1  0  0  0
 18 23  1  0  0  0
 19 23  1  0  0  0
 21  2  1  0  0  0
 21 24  1  0  0  0
 22  7  1  0  0  0
  2  3  2  0  0  0
  6 25  2  0  0  0
  7  8  2  0  0  0
  9 10  2  0  0  0
 11 13  2  0  0  0
 12 27  2  0  0  0
 14 15  2  0  0  0
 18 29  2  0  0  0
 20 24  2  0  0  0
M  END
> <rmsd>
0.601736844

$$$$
ZINC000524729961


 35 38  0  0  0  0  0  0  0  0999 V2000
  -52.8010    4.2005  -14.9291 C   0  0  0  0  0
  -53.8123    1.9740  -14.5482 C   0  0  0  0  0
  -53.0377    1.3831  -15.5594 C   0  0  0  0  0
  -53.1656    0.0178  -15.8510 C   0  0  0  0  0
  -52.3635   -0.6282  -16.9392 C   0  0  0  0  0
  -50.8601   -0.3955  -16.7834 C   0  0  0  0  0
  -50.0859   -1.2971  -17.6831 C   0  0  0  0  0
  -48.7379   -1.5520  -19.8184 C   0  0  0  0  0
  -49.7492   -2.3776  -20.6104 C   0  0  0  0  0
  -50.7998   -1.5049  -21.2883 C   0  0  0  0  0
  -50.2051   -0.6623  -22.3696 C   0  0  0  0  0
  -49.2819   -0.0165  -24.1539 C   0  0  0  0  0
  -48.6608   -0.0851  -25.3975 C   0  0  0  0  0
  -48.4435   -1.3667  -25.9328 C   0  0  0  0  0
  -48.8455   -2.5193  -25.2265 C   0  0  0  0  0
  -49.4678   -2.3818  -23.9764 C   0  0  0  0  0
  -52.8919   -0.3044  -18.3131 C   0  0  0  0  0
  -54.1115   -1.0629  -20.1573 C   0  0  0  0  0
  -54.8878   -2.1559  -20.7980 C   0  0  0  0  0
  -53.9241    0.1415  -20.8351 C   0  0  0  0  0
  -53.1905    1.1505  -20.2169 C   0  0  0  0  0
  -52.6635    0.9375  -18.9402 C   0  0  0  0  0
  -54.0799   -0.7571  -15.1314 C   0  0  0  0  0
  -54.8538   -0.1768  -14.1234 C   0  0  0  0  0
  -54.7215    1.1837  -13.8305 C   0  0  0  0  0
  -53.6956    3.3344  -14.2442 O   0  0  0  0  0
  -50.0553   -2.5371  -17.4597 O   0  0  0  0  0
  -53.5986   -1.2407  -18.9431 O   0  0  0  0  0
  -53.0057    2.2443  -20.8124 O   0  0  0  0  0
  -51.9222    1.9365  -18.3165 O   0  0  0  0  0
  -55.4976    1.7466  -12.8252 O   0  0  0  0  0
  -49.4027   -0.7405  -18.8071 N   0  0  0  0  0
  -50.1742    0.6889  -22.3414 N   0  0  0  0  0
  -49.5902    1.0977  -23.4654 N   0  0  0  0  0
  -49.6523   -1.1249  -23.5015 N   0  0  0  0  0
  1 26  1  0  0  0
  2 26  1  0  0  0
  3  4  1  0  0  0
  5  4  1  0  0  0
  5  6  1  0  0  0
  5 17  1  0  0  0
  6  7  1  0  0  0
  7 32  1  0  0  0
  8 32  1  0  0  0
  8  9  1  0  0  0
  9 10  1  0  0  0
 10 11  1  0  0  0
 12 13  1  0  0  0
 14 15  1  0  0  0
 16 35  1  0  0  0
 17 28  1  0  0  0
 18 28  1  0  0  0
 19 18  1  0  0  0
 20 21  1  0  0  0
 21 22  1  0  0  0
 22 30  1  0  0  0
 23 24  1  0  0  0
 25 31  1  0  0  0
 25  2  1  0  0  0
 33 34  1  0  0  0
 35 11  1  0  0  0
 35 12  1  0  0  0
  2  3  2  0  0  0
  4 23  2  0  0  0
  7 27  2  0  0  0
 11 33  2  0  0  0
 12 34  2  0  0  0
 13 14  2  0  0  0
 15 16  2  0  0  0
 18 20  2  0  0  0
 21 29  2  0  0  0
 22 17  2  0  0  0
 24 25  2  0  0  0
M  END
> <rmsd>
0.653963923

$$$$
ZINC000270349038 PubChem-125135852


 24 26  0  0  0  0  0  0  0  0999 V2000
  -49.5862    5.4330  -14.8094 C   0  0  0  0  0
  -50.7347    4.6863  -15.3863 C   0  0  0  0  0
  -51.7679    4.1144  -14.6761 C   0  0  0  0  0
  -52.0290    3.7874  -16.7643 C   0  0  0  0  0
  -52.5908    3.3113  -18.0565 C   0  0  0  0  0
  -52.3322    1.3387  -19.6056 C   0  0  0  0  0
  -51.6844    0.0328  -19.9271 C   0  0  0  0  0
  -51.9864   -1.0060  -18.8388 C   0  0  0  0  0
  -50.6441   -1.4492  -18.4144 C   0  0  0  0  0
  -48.1984   -0.8604  -18.7265 C   0  0  0  0  0
  -50.1545    0.1917  -20.0117 C   0  0  0  0  0
  -49.6682   -0.0282  -21.4119 C   0  0  0  0  0
  -49.0210    1.0165  -22.0803 C   0  0  0  0  0
  -48.5591    0.8355  -23.3874 C   0  0  0  0  0
  -48.7432   -0.3919  -24.0309 C   0  0  0  0  0
  -49.3894   -1.4392  -23.3678 C   0  0  0  0  0
  -49.8516   -1.2592  -22.0611 C   0  0  0  0  0
  -52.5977    3.5344  -15.5680 N   0  0  0  0  0
  -51.9889    2.0358  -18.4060 N   0  0  0  0  0
  -49.6009   -0.7954  -19.1040 N   0  0  0  0  0
  -53.1816    1.8188  -20.4024 O   0  0  0  0  0
  -50.4433   -2.3111  -17.5186 O   0  0  0  0  0
  -50.9151    4.4707  -16.6633 O   0  0  0  0  0
  -48.2954   -0.5663  -25.2971 F   0  0  0  0  0
  1  2  1  0  0  0
  2 23  1  0  0  0
  3 18  1  0  0  0
  4 23  1  0  0  0
  5  4  1  0  0  0
  5 19  1  0  0  0
  7  6  1  0  0  0
  7  8  1  0  0  0
  8  9  1  0  0  0
  9 20  1  0  0  0
 10 20  1  0  0  0
 11 20  1  0  0  0
 11 12  1  0  0  0
 11  7  1  0  0  0
 13 14  1  0  0  0
 15 24  1  0  0  0
 15 16  1  0  0  0
 17 12  1  0  0  0
 19  6  1  0  0  0
  2  3  2  0  0  0
  4 18  2  0  0  0
  6 21  2  0  0  0
  9 22  2  0  0  0
 12 13  2  0  0  0
 14 15  2  0  0  0
 16 17  2  0  0  0
M  END
> <rmsd>
0.522463977

$$$$
ZINC000270349038 PubChem-125135852


 24 26  0  0  0  0  0  0  0  0999 V2000
  -49.4736    5.3912  -14.8782 C   0  0  0  0  0
  -50.6635    4.7076  -15.4493 C   0  0  0  0  0
  -51.7565    4.2581  -14.7410 C   0  0  0  0  0
  -51.9901    3.8395  -16.8163 C   0  0  0  0  0
  -52.5574    3.3424  -18.0981 C   0  0  0  0  0
  -52.3302    1.3315  -19.6012 C   0  0  0  0  0
  -51.6824    0.0225  -19.9094 C   0  0  0  0  0
  -51.9941   -1.0087  -18.8173 C   0  0  0  0  0
  -50.6558   -1.4743  -18.4032 C   0  0  0  0  0
  -48.2057   -0.9073  -18.7122 C   0  0  0  0  0
  -50.1514    0.1752  -19.9855 C   0  0  0  0  0
  -49.6597   -0.0187  -21.3872 C   0  0  0  0  0
  -49.8507   -1.2331  -22.0644 C   0  0  0  0  0
  -49.3853   -1.3875  -23.3734 C   0  0  0  0  0
  -48.7280   -0.3311  -24.0103 C   0  0  0  0  0
  -48.5355    0.8795  -23.3383 C   0  0  0  0  0
  -49.0011    1.0352  -22.0294 C   0  0  0  0  0
  -52.6073    3.6977  -15.6257 N   0  0  0  0  0
  -51.9634    2.0573  -18.4257 N   0  0  0  0  0
  -49.6064   -0.8315  -19.0942 N   0  0  0  0  0
  -53.2063    1.7853  -20.3841 O   0  0  0  0  0
  -50.4631   -2.3444  -17.5139 O   0  0  0  0  0
  -50.8283    4.4378  -16.7182 O   0  0  0  0  0
  -48.2770   -0.4803  -25.2788 F   0  0  0  0  0
  1  2  1  0  0  0
  2 23  1  0  0  0
  3 18  1  0  0  0
  4 23  1  0  0  0
  5  4  1  0  0  0
  5 19  1  0  0  0
  7  6  1  0  0  0
  7  8  1  0  0  0
  8  9  1  0  0  0
  9 20  1  0  0  0
 10 20  1  0  0  0
 11 20  1  0  0  0
 11 12  1  0  0  0
 11  7  1  0  0  0
 13 14  1  0  0  0
 15 24  1  0  0  0
 15 16  1  0  0  0
 17 12  1  0  0  0
 19  6  1  0  0  0
  2  3  2  0  0  0
  4 18  2  0  0  0
  6 21  2  0  0  0
  9 22  2  0  0  0
 12 13  2  0  0  0
 14 15  2  0  0  0
 16 17  2  0  0  0
M  END
> <rmsd>
0.562586546

$$$$
ZINC000072335160 ZINC72335160 PubChem-95797839


 27 29  0  0  0  0  0  0  0  0999 V2000
  -49.6253    2.2653  -22.6855 C   0  0  0  0  0
  -49.2668    0.8238  -22.7923 C   0  0  0  0  0
  -48.9425   -0.0344  -21.7522 C   0  0  0  0  0
  -48.6046   -1.2311  -22.3623 C   0  0  0  0  0
  -48.5375   -2.0745  -24.6950 C   0  0  0  0  0
  -48.7932    0.2965  -20.2865 C   0  0  0  0  0
  -49.8530    1.2607  -19.7451 C   0  0  0  0  0
  -51.2530    0.6455  -19.7555 C   0  0  0  0  0
  -52.6637   -1.0636  -18.8787 C   0  0  0  0  0
  -52.2432    1.7351  -19.4730 C   0  0  0  0  0
  -53.1651    3.4763  -17.8997 C   0  0  0  0  0
  -52.8991    3.9904  -16.5293 C   0  0  0  0  0
  -51.9950    5.0412  -16.3390 C   0  0  0  0  0
  -51.7270    5.5086  -15.0486 C   0  0  0  0  0
  -52.3587    4.9223  -13.9474 C   0  0  0  0  0
  -53.2558    3.8663  -14.1358 C   0  0  0  0  0
  -53.5241    3.3987  -15.4260 C   0  0  0  0  0
  -48.7761   -1.0598  -23.6863 N   0  0  0  0  0
  -49.1667    0.1725  -23.9633 N   0  0  0  0  0
  -51.3535   -0.4327  -18.7641 N   0  0  0  0  0
  -48.6393   -0.8953  -19.4459 N   0  0  0  0  0
  -52.2212    2.4174  -18.2174 N   0  0  0  0  0
  -50.1787   -1.6508  -19.1602 S   0  0  0  0  0
  -50.0472   -2.6060  -18.0079 O   0  0  0  0  0
  -50.6035   -2.4128  -20.3860 O   0  0  0  0  0
  -53.0958    2.0377  -20.3498 O   0  0  0  0  0
  -52.0990    5.3751  -12.6975 F   0  0  0  0  0
  1  2  1  0  0  0
  2  3  1  0  0  0
  4 18  1  0  0  0
  5 18  1  0  0  0
  6  3  1  0  0  0
  6  7  1  0  0  0
  6 21  1  0  0  0
  7  8  1  0  0  0
  8 20  1  0  0  0
  8 10  1  0  0  0
  9 20  1  0  0  0
 10 22  1  0  0  0
 11 22  1  0  0  0
 11 12  1  0  0  0
 13 14  1  0  0  0
 15 16  1  0  0  0
 15 27  1  0  0  0
 17 12  1  0  0  0
 18 19  1  0  0  0
 23 20  1  0  0  0
 23 21  1  0  0  0
  2 19  2  0  0  0
  3  4  2  0  0  0
 10 26  2  0  0  0
 12 13  2  0  0  0
 14 15  2  0  0  0
 16 17  2  0  0  0
 23 24  2  0  0  0
 23 25  2  0  0  0
M  END
> <rmsd>
0.543960094

$$$$
ZINC000015625802 ZINC15625802 CSC026339303 MCULE-7875438388 MolPort-009-499-490 PubChem-26717303


 26 28  0  0  0  0  0  0  0  0999 V2000
  -50.5293   -4.5133  -16.3280 C   0  0  0  0  0
  -49.6300   -3.3094  -16.5157 C   0  0  0  0  0
  -50.5620   -1.0714  -17.0089 C   0  0  0  0  0
  -50.2682   -0.5906  -15.7250 C   0  0  0  0  0
  -50.5918    0.7216  -15.3753 C   0  0  0  0  0
  -51.2094    1.5744  -16.3045 C   0  0  0  0  0
  -51.2925    3.4442  -14.6831 C   0  0  0  0  0
  -51.7745    4.8789  -14.6492 C   0  0  0  0  0
  -51.4910    1.1020  -17.5963 C   0  0  0  0  0
  -52.2212    1.7627  -19.9533 C   0  0  0  0  0
  -51.0739    1.2487  -20.7304 C   0  0  0  0  0
  -49.7550    1.3555  -20.2246 C   0  0  0  0  0
  -48.6539    0.8907  -20.9648 C   0  0  0  0  0
  -48.9043    0.3301  -22.2140 C   0  0  0  0  0
  -48.7164   -0.5836  -24.1334 C   0  0  0  0  0
  -48.1059   -1.2103  -25.3380 C   0  0  0  0  0
  -50.0738   -0.3507  -23.9511 C   0  0  0  0  0
  -51.1837   -0.6685  -24.8943 C   0  0  0  0  0
  -50.1772    0.2354  -22.7148 C   0  0  0  0  0
  -51.2880    0.6873  -22.0064 C   0  0  0  0  0
  -51.1775   -0.2241  -17.9331 C   0  0  0  0  0
  -50.2564   -2.3808  -17.3904 O   0  0  0  0  0
  -51.5460    2.8901  -15.9668 O   0  0  0  0  0
  -53.2795    2.0850  -20.5558 O   0  0  0  0  0
  -52.1510    1.9632  -18.5347 N   0  0  0  0  0
  -47.9890   -0.1668  -23.0685 N   0  0  0  0  0
  1  2  1  0  0  0
  2 22  1  0  0  0
  3 22  1  0  0  0
  4  5  1  0  0  0
  6 23  1  0  0  0
  6  9  1  0  0  0
  7 23  1  0  0  0
  7  8  1  0  0  0
  9 25  1  0  0  0
 10 11  1  0  0  0
 12 13  1  0  0  0
 14 26  1  0  0  0
 16 15  1  0  0  0
 17 19  1  0  0  0
 18 17  1  0  0  0
 19 14  1  0  0  0
 20 11  1  0  0  0
 21  3  1  0  0  0
 25 10  1  0  0  0
 26 15  1  0  0  0
  3  4  2  0  0  0
  5  6  2  0  0  0
  9 21  2  0  0  0
 10 24  2  0  0  0
 11 12  2  0  0  0
 13 14  2  0  0  0
 15 17  2  0  0  0
 19 20  2  0  0  0
M  END
> <rmsd>
0.397450835

$$$$
ZINC000005322760


 29 32  0  0  0  0  0  0  0  0999 V2000
  -49.8215   -3.8188  -18.3372 C   0  0  0  0  0
  -49.6200   -1.6555  -18.7081 C   0  0  0  0  0
  -50.0066   -0.2503  -18.2888 C   0  0  0  0  0
  -49.4629    0.7654  -19.2823 C   0  0  0  0  0
  -51.4400    1.1280  -20.8478 C   0  0  0  0  0
  -52.3479    1.8311  -19.9190 C   0  0  0  0  0
  -52.7758    2.8941  -17.6711 C   0  0  0  0  0
  -52.0372    3.1213  -16.3657 C   0  0  0  0  0
  -52.9804    3.7039  -15.3411 C   0  0  0  0  0
  -52.1451    4.7176  -14.6194 C   0  0  0  0  0
  -50.8045    4.6471  -15.3127 C   0  0  0  0  0
  -51.7684    0.8529  -22.1821 C   0  0  0  0  0
  -50.6388    0.2268  -22.6763 C   0  0  0  0  0
  -49.7193    0.1513  -21.6821 C   0  0  0  0  0
  -48.1974   -0.9367  -23.0916 C   0  0  0  0  0
  -46.9442   -1.5359  -23.3020 C   0  0  0  0  0
  -45.9303   -1.6280  -22.2126 C   0  0  0  0  0
  -46.6383   -2.0580  -24.5571 C   0  0  0  0  0
  -47.5686   -1.9848  -25.5901 C   0  0  0  0  0
  -48.8063   -1.3861  -25.3569 C   0  0  0  0  0
  -50.3476   -0.2887  -23.9326 C   0  0  0  0  0
  -50.1471   -2.5736  -17.8017 O   0  0  0  0  0
  -53.5166    2.1210  -20.2941 O   0  0  0  0  0
  -50.9805    4.0242  -16.5565 O   0  0  0  0  0
  -51.2000   -0.2195  -24.8618 O   0  0  0  0  0
  -50.1868    0.6885  -20.5478 N   0  0  0  0  0
  -51.9114    2.1976  -18.6096 N   0  0  0  0  0
  -48.5068   -0.4215  -21.8627 N   0  0  0  0  0
  -49.1176   -0.8709  -24.1310 N   0  0  0  0  0
  1 22  1  0  0  0
  2 22  1  0  0  0
  2  3  1  0  0  0
  3  4  1  0  0  0
  4 26  1  0  0  0
  5  6  1  0  0  0
  6 27  1  0  0  0
  7 27  1  0  0  0
  8  7  1  0  0  0
  8  9  1  0  0  0
  8 24  1  0  0  0
  9 10  1  0  0  0
 10 11  1  0  0  0
 11 24  1  0  0  0
 12 13  1  0  0  0
 14 28  1  0  0  0
 14 26  1  0  0  0
 15 16  1  0  0  0
 17 16  1  0  0  0
 18 19  1  0  0  0
 20 29  1  0  0  0
 21 13  1  0  0  0
 26  5  1  0  0  0
 29 21  1  0  0  0
 29 15  1  0  0  0
  5 12  2  0  0  0
  6 23  2  0  0  0
 13 14  2  0  0  0
 15 28  2  0  0  0
 16 18  2  0  0  0
 19 20  2  0  0  0
 21 25  2  0  0  0
M  END
> <rmsd>
0.417572349

$$$$
ZINC000005348225 PubChem-7643528


 25 26  0  0  0  0  0  0  0  0999 V2000
  -48.1450   -0.9106  -25.5619 C   0  0  0  0  0
  -48.8561   -0.6903  -24.2759 C   0  0  0  0  0
  -48.1312   -0.3882  -23.1196 C   0  0  0  0  0
  -48.7998   -0.1815  -21.9097 C   0  0  0  0  0
  -50.1993   -0.2779  -21.8522 C   0  0  0  0  0
  -50.9199   -0.5787  -23.0135 C   0  0  0  0  0
  -50.2498   -0.7855  -24.2230 C   0  0  0  0  0
  -50.9423   -0.0596  -20.5665 C   0  0  0  0  0
  -50.7902    1.3981  -20.1370 C   0  0  0  0  0
  -52.0852    1.9409  -19.6369 C   0  0  0  0  0
  -53.4282    2.8980  -17.7321 C   0  0  0  0  0
  -53.2358    3.2523  -16.2672 C   0  0  0  0  0
  -53.1630    5.5709  -15.9847 C   0  0  0  0  0
  -51.6289    4.2137  -14.8811 C   0  0  0  0  0
  -50.4872   -1.0334  -19.4666 C   0  0  0  0  0
  -51.2683   -0.8244  -18.1620 C   0  0  0  0  0
  -51.2926   -2.0975  -17.3117 C   0  0  0  0  0
  -50.1509   -3.4507  -18.8068 C   0  0  0  0  0
  -50.6184   -2.4904  -19.9181 C   0  0  0  0  0
  -48.7472   -3.9066  -19.1491 C   0  0  0  0  0
  -51.0477   -4.6783  -18.7951 C   0  0  0  0  0
  -53.0726    2.0310  -20.4155 O   0  0  0  0  0
  -50.1184   -2.8519  -17.5174 O   0  0  0  0  0
  -52.1899    2.3669  -18.2791 N   0  0  0  0  0
  -52.3359    4.3868  -16.1365 N   0  0  0  0  0
  1  2  1  0  0  0
  3  4  1  0  0  0
  5  6  1  0  0  0
  7  2  1  0  0  0
  8  5  1  0  0  0
  8  9  1  0  0  0
  8 15  1  0  0  0
  9 10  1  0  0  0
 10 24  1  0  0  0
 11 24  1  0  0  0
 11 12  1  0  0  0
 12 25  1  0  0  0
 13 25  1  0  0  0
 14 25  1  0  0  0
 15 16  1  0  0  0
 16 17  1  0  0  0
 17 23  1  0  0  0
 18 23  1  0  0  0
 18 19  1  0  0  0
 18 20  1  0  0  0
 18 21  1  0  0  0
 19 15  1  0  0  0
  2  3  2  0  0  0
  4  5  2  0  0  0
  6  7  2  0  0  0
 10 22  2  0  0  0
M  END
> <rmsd>
0.507923901

$$$$
ZINC000006281134 ZINC06281134 PubChem-40601604


 35 39  0  0  0  0  0  0  0  0999 V2000
  -50.0446   -8.2230  -17.6976 C   0  0  0  0  0
  -49.3315   -7.0250  -17.1857 C   0  0  0  0  0
  -48.2004   -7.0526  -16.3932 C   0  0  0  0  0
  -47.8861   -5.7225  -16.1621 C   0  0  0  0  0
  -48.8546   -4.9962  -16.8327 C   0  0  0  0  0
  -48.9406   -3.5340  -16.8782 C   0  0  0  0  0
  -50.3539   -0.4551  -17.8033 C   0  0  0  0  0
  -49.9043   -0.1361  -19.1957 C   0  0  0  0  0
  -52.2715    0.0783  -19.9763 C   0  0  0  0  0
  -52.5727    1.5127  -19.6941 C   0  0  0  0  0
  -52.7115    3.3969  -18.0255 C   0  0  0  0  0
  -52.5620    3.6005  -16.5292 C   0  0  0  0  0
  -52.9859    5.0015  -16.1586 C   0  0  0  0  0
  -51.9766    5.4237  -15.1315 C   0  0  0  0  0
  -51.0677    4.2237  -15.0006 C   0  0  0  0  0
  -50.4343   -0.1691  -21.6666 C   0  0  0  0  0
  -49.1917   -0.7191  -22.0205 C   0  0  0  0  0
  -48.8108   -0.7979  -23.3589 C   0  0  0  0  0
  -47.5696   -1.3298  -23.7176 C   0  0  0  0  0
  -47.2021   -1.3905  -25.0660 C   0  0  0  0  0
  -48.0744   -0.9187  -26.0540 C   0  0  0  0  0
  -49.3184   -0.3846  -25.6988 C   0  0  0  0  0
  -49.6888   -0.3213  -24.3535 C   0  0  0  0  0
  -51.2789    0.2827  -22.6957 C   0  0  0  0  0
  -49.7007   -5.7952  -17.4330 O   0  0  0  0  0
  -48.6913    0.1431  -19.3922 O   0  0  0  0  0
  -52.8845    2.2857  -20.6381 O   0  0  0  0  0
  -51.2222    3.4269  -16.1444 O   0  0  0  0  0
  -48.0531   -2.7013  -16.2972 N   0  0  0  0  0
  -48.4989   -1.4860  -16.5735 N   0  0  0  0  0
  -49.6102   -1.5897  -17.2798 N   0  0  0  0  0
  -49.9212   -2.8539  -17.5033 N   0  0  0  0  0
  -50.8506   -0.0930  -20.2844 N   0  0  0  0  0
  -52.4621    2.0035  -18.3590 N   0  0  0  0  0
  -50.8914    0.2019  -23.9991 N   0  0  0  0  0
  1  2  1  0  0  0
  2 25  1  0  0  0
  3  4  1  0  0  0
  5 25  1  0  0  0
  5  6  1  0  0  0
  6 29  1  0  0  0
  7 31  1  0  0  0
  7  8  1  0  0  0
  8 33  1  0  0  0
  9 33  1  0  0  0
  9 10  1  0  0  0
 10 34  1  0  0  0
 11 34  1  0  0  0
 12 11  1  0  0  0
 12 13  1  0  0  0
 12 28  1  0  0  0
 13 14  1  0  0  0
 14 15  1  0  0  0
 15 28  1  0  0  0
 17 18  1  0  0  0
 19 20  1  0  0  0
 21 22  1  0  0  0
 23 35  1  0  0  0
 23 18  1  0  0  0
 24 16  1  0  0  0
 31 30  1  0  0  0
 31 32  1  0  0  0
 33 16  1  0  0  0
  2  3  2  0  0  0
  4  5  2  0  0  0
  6 32  2  0  0  0
  8 26  2  0  0  0
 10 27  2  0  0  0
 16 17  2  0  0  0
 18 19  2  0  0  0
 20 21  2  0  0  0
 22 23  2  0  0  0
 24 35  2  0  0  0
 29 30  2  0  0  0
M  END
> <rmsd>
0.596781075

$$$$
ZINC000096181390


 24 26  0  0  0  0  0  0  0  0999 V2000
  -49.5169    5.3842  -14.8434 C   0  0  0  0  0
  -50.7069    4.6727  -15.3799 C   0  0  0  0  0
  -51.7512    4.1866  -14.6178 C   0  0  0  0  0
  -52.6238    3.6050  -15.5251 C   0  0  0  0  0
  -52.0371    3.7908  -16.7622 C   0  0  0  0  0
  -52.5972    3.3127  -18.0543 C   0  0  0  0  0
  -52.3361    1.3387  -19.6015 C   0  0  0  0  0
  -51.6873    0.0329  -19.9213 C   0  0  0  0  0
  -51.9907   -1.0054  -18.8330 C   0  0  0  0  0
  -50.6491   -1.4476  -18.4056 C   0  0  0  0  0
  -48.2031   -0.8576  -18.7134 C   0  0  0  0  0
  -50.1572    0.1926  -20.0031 C   0  0  0  0  0
  -49.6683   -0.0283  -21.4022 C   0  0  0  0  0
  -49.0206    1.0164  -22.0702 C   0  0  0  0  0
  -48.5563    0.8347  -23.3764 C   0  0  0  0  0
  -48.7385   -0.3933  -24.0192 C   0  0  0  0  0
  -48.2446   -0.5855  -25.4074 C   0  0  0  0  0
  -49.3852   -1.4405  -23.3565 C   0  0  0  0  0
  -49.8497   -1.2598  -22.0506 C   0  0  0  0  0
  -51.9942    2.0373  -18.4024 N   0  0  0  0  0
  -49.6049   -0.7937  -19.0936 N   0  0  0  0  0
  -53.1855    1.8175  -20.3994 O   0  0  0  0  0
  -50.4497   -2.3088  -17.5090 O   0  0  0  0  0
  -50.8975    4.4239  -16.6499 O   0  0  0  0  0
  1  2  1  0  0  0
  2 24  1  0  0  0
  3  4  1  0  0  0
  5 24  1  0  0  0
  6  5  1  0  0  0
  6 20  1  0  0  0
  8  7  1  0  0  0
  8  9  1  0  0  0
  9 10  1  0  0  0
 10 21  1  0  0  0
 11 21  1  0  0  0
 12 21  1  0  0  0
 12 13  1  0  0  0
 12  8  1  0  0  0
 14 15  1  0  0  0
 16 18  1  0  0  0
 17 16  1  0  0  0
 19 13  1  0  0  0
 20  7  1  0  0  0
  2  3  2  0  0  0
  4  5  2  0  0  0
  7 22  2  0  0  0
 10 23  2  0  0  0
 13 14  2  0  0  0
 15 16  2  0  0  0
 18 19  2  0  0  0
M  END
> <rmsd>
0.521802068

$$$$
ZINC000096181390


 24 26  0  0  0  0  0  0  0  0999 V2000
  -51.4875    3.6144  -13.2671 C   0  0  0  0  0
  -51.5058    3.9190  -14.7225 C   0  0  0  0  0
  -50.7822    4.9252  -15.3320 C   0  0  0  0  0
  -51.1010    4.8386  -16.6792 C   0  0  0  0  0
  -51.9936    3.7883  -16.7730 C   0  0  0  0  0
  -52.6024    3.2955  -18.0376 C   0  0  0  0  0
  -52.3430    1.3351  -19.6058 C   0  0  0  0  0
  -51.6870    0.0362  -19.9403 C   0  0  0  0  0
  -51.9994   -1.0163  -18.8678 C   0  0  0  0  0
  -50.6611   -1.4452  -18.4157 C   0  0  0  0  0
  -48.2173   -0.8247  -18.6721 C   0  0  0  0  0
  -50.1564    0.2024  -20.0016 C   0  0  0  0  0
  -49.6476   -0.0166  -21.3937 C   0  0  0  0  0
  -49.8025   -1.2531  -22.0392 C   0  0  0  0  0
  -49.3245   -1.4298  -23.3408 C   0  0  0  0  0
  -48.6935   -0.3732  -24.0030 C   0  0  0  0  0
  -48.1865   -0.5611  -25.3869 C   0  0  0  0  0
  -48.5376    0.8600  -23.3631 C   0  0  0  0  0
  -49.0137    1.0373  -22.0609 C   0  0  0  0  0
  -51.9814    2.0365  -18.4141 N   0  0  0  0  0
  -49.6110   -0.7801  -19.0836 N   0  0  0  0  0
  -53.2218    1.8009  -20.3795 O   0  0  0  0  0
  -50.4692   -2.3038  -17.5147 O   0  0  0  0  0
  -52.2171    3.2569  -15.5981 O   0  0  0  0  0
  1  2  1  0  0  0
  2 24  1  0  0  0
  3  4  1  0  0  0
  5 24  1  0  0  0
  6  5  1  0  0  0
  6 20  1  0  0  0
  8  7  1  0  0  0
  8  9  1  0  0  0
  9 10  1  0  0  0
 10 21  1  0  0  0
 11 21  1  0  0  0
 12 21  1  0  0  0
 12 13  1  0  0  0
 12  8  1  0  0  0
 14 15  1  0  0  0
 16 18  1  0  0  0
 17 16  1  0  0  0
 19 13  1  0  0  0
 20  7  1  0  0  0
  2  3  2  0  0  0
  4  5  2  0  0  0
  7 22  2  0  0  0
 10 23  2  0  0  0
 13 14  2  0  0  0
 15 16  2  0  0  0
 18 19  2  0  0  0
M  END
> <rmsd>
0.548631907

$$$$
ZINC000408597752 PubChem-125609150


 29 30  0  0  0  0  0  0  0  0999 V2000
  -52.3654    4.8764  -15.0962 C   0  0  0  0  0
  -52.2080    4.6481  -17.2845 C   0  0  0  0  0
  -52.6003    3.8463  -18.5109 C   0  0  0  0  0
  -52.4092    1.4809  -19.3597 C   0  0  0  0  0
  -51.9366    0.0836  -19.1490 C   0  0  0  0  0
  -50.0346   -0.2828  -20.7610 C   0  0  0  0  0
  -48.6693   -0.1947  -21.0734 C   0  0  0  0  0
  -48.2154   -0.4638  -22.3661 C   0  0  0  0  0
  -49.1188   -0.8246  -23.3683 C   0  0  0  0  0
  -50.4884   -0.9159  -23.0710 C   0  0  0  0  0
  -50.9359   -0.6458  -21.7747 C   0  0  0  0  0
  -48.2765   -1.0868  -17.9842 C   0  0  0  0  0
  -46.9005   -0.8311  -17.9523 C   0  0  0  0  0
  -45.9879   -1.8845  -17.8664 C   0  0  0  0  0
  -44.5295   -1.6028  -17.8344 C   0  0  0  0  0
  -46.4462   -3.2019  -17.8125 C   0  0  0  0  0
  -47.8174   -3.4654  -17.8434 C   0  0  0  0  0
  -48.7441   -2.4128  -17.9291 C   0  0  0  0  0
  -50.6647   -3.9773  -17.9217 C   0  0  0  0  0
  -52.9459    4.2204  -16.1805 O   0  0  0  0  0
  -52.9800    1.7902  -20.4393 O   0  0  0  0  0
  -48.6518    1.5438  -18.3559 O   0  0  0  0  0
  -50.1547    0.3823  -16.8159 O   0  0  0  0  0
  -50.1206   -2.6653  -17.9606 O   0  0  0  0  0
  -52.1805    2.4636  -18.3503 N   0  0  0  0  0
  -50.5066   -0.0099  -19.4254 N   0  0  0  0  0
  -48.5038   -1.1542  -24.9796 Cl  0  0  0  0  0
  -51.6669   -1.3644  -24.2924 Cl  0  0  0  0  0
  -49.3996    0.2629  -18.1105 S   0  0  0  0  0
  1 20  1  0  0  0
  2 20  1  0  0  0
  2  3  1  0  0  0
  3 25  1  0  0  0
  5  4  1  0  0  0
  5 26  1  0  0  0
  7  8  1  0  0  0
  9 27  1  0  0  0
  9 10  1  0  0  0
 10 28  1  0  0  0
 11  6  1  0  0  0
 13 14  1  0  0  0
 15 14  1  0  0  0
 16 17  1  0  0  0
 18 24  1  0  0  0
 18 12  1  0  0  0
 19 24  1  0  0  0
 25  4  1  0  0  0
 26  6  1  0  0  0
 29 26  1  0  0  0
 29 12  1  0  0  0
  4 21  2  0  0  0
  6  7  2  0  0  0
  8  9  2  0  0  0
 10 11  2  0  0  0
 12 13  2  0  0  0
 14 16  2  0  0  0
 17 18  2  0  0  0
 29 22  2  0  0  0
 29 23  2  0  0  0
M  END
> <rmsd>
0.553103447

$$$$
ZINC000065211338 ZINC65211338 ChemDiv-P103-1195 MolPort-010-919-102 PubChem-53160942


 25 27  0  0  0  0  0  0  0  0999 V2000
  -47.6452   -0.8003  -25.4892 C   0  0  0  0  0
  -48.9781   -1.4131  -25.1081 C   0  0  0  0  0
  -49.2122   -1.2553  -23.6464 C   0  0  0  0  0
  -49.5391   -1.6448  -21.6193 C   0  0  0  0  0
  -49.7387   -2.3563  -20.3321 C   0  0  0  0  0
  -49.9877   -1.7153  -19.0904 C   0  0  0  0  0
  -51.8818    0.0714  -19.2361 C   0  0  0  0  0
  -52.3884    1.4693  -19.2855 C   0  0  0  0  0
  -52.8136    3.6602  -18.1147 C   0  0  0  0  0
  -52.6126    4.2603  -16.7682 C   0  0  0  0  0
  -51.4126    4.9018  -16.4532 C   0  0  0  0  0
  -51.2269    5.4403  -15.1786 C   0  0  0  0  0
  -52.2487    5.3223  -14.2331 C   0  0  0  0  0
  -53.6078    4.1558  -15.7926 C   0  0  0  0  0
  -50.0964   -3.8237  -17.9852 C   0  0  0  0  0
  -49.8579   -4.4949  -19.1804 C   0  0  0  0  0
  -49.6804   -3.7567  -20.3479 C   0  0  0  0  0
  -49.3409   -2.2869  -22.7926 N   0  0  0  0  0
  -49.5289   -0.3045  -21.7691 N   0  0  0  0  0
  -52.3334    2.2877  -18.1168 N   0  0  0  0  0
  -53.4079    4.6871  -14.5562 N   0  0  0  0  0
  -50.1547   -2.4672  -17.9676 N   0  0  0  0  0
  -49.3256   -0.1039  -23.0348 O   0  0  0  0  0
  -52.8736    1.9160  -20.3588 O   0  0  0  0  0
  -50.0942    0.0672  -18.9087 S   0  0  0  0  0
  1  2  1  0  0  0
  2  3  1  0  0  0
  3 23  1  0  0  0
  4 18  1  0  0  0
  4  5  1  0  0  0
  5  6  1  0  0  0
  6 25  1  0  0  0
  7 25  1  0  0  0
  7  8  1  0  0  0
  8 20  1  0  0  0
  9 20  1  0  0  0
  9 10  1  0  0  0
 11 12  1  0  0  0
 13 21  1  0  0  0
 14 10  1  0  0  0
 15 22  1  0  0  0
 16 17  1  0  0  0
 19 23  1  0  0  0
  3 18  2  0  0  0
  4 19  2  0  0  0
  6 22  2  0  0  0
  8 24  2  0  0  0
 10 11  2  0  0  0
 12 13  2  0  0  0
 14 21  2  0  0  0
 15 16  2  0  0  0
 17  5  2  0  0  0
M  END
> <rmsd>
0.54572773

$$$$
ZINC000072242200 ZINC72242200 PubChem-95740414


 24 26  0  0  0  0  0  0  0  0999 V2000
  -51.9212    5.3613  -14.9710 C   0  0  0  0  0
  -52.4410    4.8695  -16.2733 C   0  0  0  0  0
  -53.3760    5.6267  -16.9813 C   0  0  0  0  0
  -53.8529    5.1495  -18.2024 C   0  0  0  0  0
  -53.3928    3.9290  -18.6985 C   0  0  0  0  0
  -52.4536    3.1927  -17.9627 C   0  0  0  0  0
  -52.3034    1.2613  -19.6461 C   0  0  0  0  0
  -51.6687   -0.0461  -19.9861 C   0  0  0  0  0
  -51.9750   -1.0967  -18.9105 C   0  0  0  0  0
  -50.6348   -1.5644  -18.5058 C   0  0  0  0  0
  -50.1379    0.0994  -20.0768 C   0  0  0  0  0
  -49.6624   -0.0962  -21.4842 C   0  0  0  0  0
  -49.0100    0.9562  -22.1352 C   0  0  0  0  0
  -48.5581    0.7981  -23.4488 C   0  0  0  0  0
  -48.7578   -0.4140  -24.1162 C   0  0  0  0  0
  -49.4094   -1.4689  -23.4706 C   0  0  0  0  0
  -49.8615   -1.3117  -22.1573 C   0  0  0  0  0
  -48.1847   -1.0002  -18.8278 C   0  0  0  0  0
  -52.0051    3.6822  -16.7743 N   0  0  0  0  0
  -51.9485    1.9342  -18.4285 N   0  0  0  0  0
  -49.5892   -0.9118  -19.1931 N   0  0  0  0  0
  -53.1451    1.7558  -20.4416 O   0  0  0  0  0
  -50.4376   -2.4443  -17.6268 O   0  0  0  0  0
  -48.3197   -0.5663  -25.3888 F   0  0  0  0  0
  1  2  1  0  0  0
  2 19  1  0  0  0
  3  4  1  0  0  0
  5  6  1  0  0  0
  6 20  1  0  0  0
  8  7  1  0  0  0
  8  9  1  0  0  0
  9 10  1  0  0  0
 10 21  1  0  0  0
 11 21  1  0  0  0
 11 12  1  0  0  0
 11  8  1  0  0  0
 13 14  1  0  0  0
 15 16  1  0  0  0
 15 24  1  0  0  0
 17 12  1  0  0  0
 18 21  1  0  0  0
 20  7  1  0  0  0
  2  3  2  0  0  0
  4  5  2  0  0  0
  6 19  2  0  0  0
  7 22  2  0  0  0
 10 23  2  0  0  0
 12 13  2  0  0  0
 14 15  2  0  0  0
 16 17  2  0  0  0
M  END
> <rmsd>
0.576785862

$$$$
ZINC000072242200 ZINC72242200 PubChem-95740414


 24 26  0  0  0  0  0  0  0  0999 V2000
  -51.9212    5.3612  -14.9709 C   0  0  0  0  0
  -52.4410    4.8695  -16.2733 C   0  0  0  0  0
  -53.3760    5.6266  -16.9813 C   0  0  0  0  0
  -53.8529    5.1495  -18.2024 C   0  0  0  0  0
  -53.3928    3.9290  -18.6985 C   0  0  0  0  0
  -52.4535    3.1927  -17.9627 C   0  0  0  0  0
  -52.3034    1.2613  -19.6461 C   0  0  0  0  0
  -51.6687   -0.0461  -19.9861 C   0  0  0  0  0
  -51.9750   -1.0968  -18.9105 C   0  0  0  0  0
  -50.6349   -1.5644  -18.5058 C   0  0  0  0  0
  -50.1379    0.0994  -20.0769 C   0  0  0  0  0
  -49.6625   -0.0962  -21.4842 C   0  0  0  0  0
  -49.8616   -1.3117  -22.1574 C   0  0  0  0  0
  -49.4095   -1.4689  -23.4707 C   0  0  0  0  0
  -48.7578   -0.4140  -24.1162 C   0  0  0  0  0
  -48.5581    0.7981  -23.4488 C   0  0  0  0  0
  -49.0099    0.9562  -22.1352 C   0  0  0  0  0
  -48.1847   -1.0002  -18.8278 C   0  0  0  0  0
  -52.0051    3.6822  -16.7743 N   0  0  0  0  0
  -51.9485    1.9341  -18.4285 N   0  0  0  0  0
  -49.5892   -0.9119  -19.1931 N   0  0  0  0  0
  -53.1451    1.7559  -20.4416 O   0  0  0  0  0
  -50.4375   -2.4442  -17.6268 O   0  0  0  0  0
  -48.3197   -0.5663  -25.3887 F   0  0  0  0  0
  1  2  1  0  0  0
  2 19  1  0  0  0
  3  4  1  0  0  0
  5  6  1  0  0  0
  6 20  1  0  0  0
  8  7  1  0  0  0
  8  9  1  0  0  0
  9 10  1  0  0  0
 10 21  1  0  0  0
 11 21  1  0  0  0
 11 12  1  0  0  0
 11  8  1  0  0  0
 13 14  1  0  0  0
 15 16  1  0  0  0
 15 24  1  0  0  0
 17 12  1  0  0  0
 18 21  1  0  0  0
 20  7  1  0  0  0
  2  3  2  0  0  0
  4  5  2  0  0  0
  6 19  2  0  0  0
  7 22  2  0  0  0
 10 23  2  0  0  0
 12 13  2  0  0  0
 14 15  2  0  0  0
 16 17  2  0  0  0
M  END
> <rmsd>
0.576785862

$$$$
ZINC000003420494 ZINC03420494 PubChem-2539725


 27 29  0  0  0  0  0  0  0  0999 V2000
  -54.3071   -0.3987  -20.2102 C   0  0  0  0  0
  -52.9407    0.0675  -19.7302 C   0  0  0  0  0
  -52.8698    1.5544  -19.5322 C   0  0  0  0  0
  -51.6679    1.4688  -17.2567 C   0  0  0  0  0
  -51.1087    0.1958  -17.4411 C   0  0  0  0  0
  -50.3808   -0.4287  -16.4218 C   0  0  0  0  0
  -50.2047    0.2372  -15.2025 C   0  0  0  0  0
  -50.7474    1.5089  -15.0104 C   0  0  0  0  0
  -51.4771    2.1346  -16.0346 C   0  0  0  0  0
  -51.8721    4.1522  -14.6535 C   0  0  0  0  0
  -51.7451   -0.1652  -21.9222 C   0  0  0  0  0
  -50.5672   -0.6695  -22.6345 C   0  0  0  0  0
  -50.3185   -0.4902  -24.0013 C   0  0  0  0  0
  -49.1115   -1.0942  -24.3475 C   0  0  0  0  0
  -48.4603   -1.6989  -23.3419 C   0  0  0  0  0
  -47.1909   -2.3266  -23.7337 C   0  0  0  0  0
  -47.1280   -2.0089  -25.2440 C   0  0  0  0  0
  -48.3911   -1.2026  -25.6282 C   0  0  0  0  0
  -53.2630    2.3236  -20.4487 O   0  0  0  0  0
  -52.0207    3.4122  -15.8576 O   0  0  0  0  0
  -49.1732   -2.2974  -15.7257 O   0  0  0  0  0
  -49.9891   -2.3742  -17.8368 O   0  0  0  0  0
  -51.8780   -0.4205  -20.5511 O   0  0  0  0  0
  -52.6258    0.4850  -22.5481 O   0  0  0  0  0
  -52.3899    2.1289  -18.3085 N   0  0  0  0  0
  -49.8206   -1.7318  -16.6313 N   0  0  0  0  0
  -49.3076   -1.5539  -21.9058 S   0  0  0  0  0
  2  1  1  0  0  0
  2  3  1  0  0  0
  2 23  1  0  0  0
  3 25  1  0  0  0
  5  6  1  0  0  0
  6 26  1  0  0  0
  7  8  1  0  0  0
  9 20  1  0  0  0
  9  4  1  0  0  0
 10 20  1  0  0  0
 11 23  1  0  0  0
 11 12  1  0  0  0
 12 27  1  0  0  0
 13 14  1  0  0  0
 15 27  1  0  0  0
 16 15  1  0  0  0
 16 17  1  0  0  0
 17 18  1  0  0  0
 18 14  1  0  0  0
 25  4  1  0  0  0
 26 22  1  0  0  0
  3 19  2  0  0  0
  4  5  2  0  0  0
  6  7  2  0  0  0
  8  9  2  0  0  0
 11 24  2  0  0  0
 12 13  2  0  0  0
 14 15  2  0  0  0
 26 21  2  0  0  0
M  CHG  2  26   1  22  -1
M  END
> <rmsd>
0.597090662

$$$$
ZINC000096182866 ZINC96182866 PubChem-97458158


 25 27  0  0  0  0  0  0  0  0999 V2000
  -52.2118    4.5369  -14.4256 C   0  0  0  0  0
  -52.6408    4.0420  -15.7632 C   0  0  0  0  0
  -53.8019    4.4635  -16.4042 C   0  0  0  0  0
  -52.4792    2.8155  -17.6333 C   0  0  0  0  0
  -52.4057    1.4870  -19.8189 C   0  0  0  0  0
  -51.8012    0.3296  -20.5618 C   0  0  0  0  0
  -50.2624    0.2783  -20.4800 C   0  0  0  0  0
  -50.7090   -1.3766  -18.6394 C   0  0  0  0  0
  -52.1738   -1.2604  -18.9148 C   0  0  0  0  0
  -48.3983   -0.4610  -18.9545 C   0  0  0  0  0
  -49.6788   -0.2207  -21.7677 C   0  0  0  0  0
  -48.8189    0.6104  -22.4950 C   0  0  0  0  0
  -48.2519    0.1610  -23.6915 C   0  0  0  0  0
  -48.5423   -1.1227  -24.1645 C   0  0  0  0  0
  -49.3982   -1.9585  -23.4404 C   0  0  0  0  0
  -49.9638   -1.5099  -22.2431 C   0  0  0  0  0
  -54.7902    5.4494  -15.8863 C   0  0  0  0  0
  -53.9211    3.6614  -17.8752 S   0  0  0  0  0
  -51.9103    3.1231  -16.4485 N   0  0  0  0  0
  -51.9175    1.8374  -18.5157 N   0  0  0  0  0
  -49.7967   -0.5329  -19.3514 N   0  0  0  0  0
  -53.3478    2.1271  -20.3517 O   0  0  0  0  0
  -50.2995   -2.1612  -17.7428 O   0  0  0  0  0
  -52.4118   -0.9148  -20.2635 O   0  0  0  0  0
  -47.9949   -1.5570  -25.3243 F   0  0  0  0  0
  1  2  1  0  0  0
  2 19  1  0  0  0
  3 18  1  0  0  0
  4 18  1  0  0  0
  4 20  1  0  0  0
  6  5  1  0  0  0
  6  7  1  0  0  0
  6 24  1  0  0  0
  7 21  1  0  0  0
  7 11  1  0  0  0
  9  8  1  0  0  0
  9 24  1  0  0  0
 10 21  1  0  0  0
 12 13  1  0  0  0
 14 15  1  0  0  0
 14 25  1  0  0  0
 16 11  1  0  0  0
 17  3  1  0  0  0
 20  5  1  0  0  0
 21  8  1  0  0  0
  2  3  2  0  0  0
  4 19  2  0  0  0
  5 22  2  0  0  0
  8 23  2  0  0  0
 11 12  2  0  0  0
 13 14  2  0  0  0
 15 16  2  0  0  0
M  END
> <rmsd>
0.424923778

$$$$
ZINC000225679518 PubChem-100720123


 29 31  0  0  0  0  0  0  0  0999 V2000
  -48.5577   -1.8000  -24.3207 C   0  0  0  0  0
  -49.6221   -0.2767  -22.6569 C   0  0  0  0  0
  -49.4078    0.8693  -21.9019 C   0  0  0  0  0
  -50.3729    1.3803  -21.0399 C   0  0  0  0  0
  -51.5986    0.7020  -20.9439 C   0  0  0  0  0
  -51.8283   -0.4614  -21.7053 C   0  0  0  0  0
  -50.8397   -0.9588  -22.5694 C   0  0  0  0  0
  -51.3010    0.8115  -17.5469 C   0  0  0  0  0
  -51.0551   -0.4852  -18.0138 C   0  0  0  0  0
  -50.2564   -1.3874  -17.2985 C   0  0  0  0  0
  -49.6906   -0.9779  -16.0699 C   0  0  0  0  0
  -49.9395    0.3161  -15.6049 C   0  0  0  0  0
  -50.7345    1.2230  -16.3202 C   0  0  0  0  0
  -50.9408    2.5778  -15.7510 C   0  0  0  0  0
  -51.9378    4.8260  -15.8975 C   0  0  0  0  0
  -48.5249   -3.1383  -15.5820 C   0  0  0  0  0
  -50.5529   -3.1234  -19.0434 C   0  0  0  0  0
  -47.5335    0.2223  -23.3055 C   0  0  0  0  0
  -48.5722   -0.6380  -23.4429 N   0  0  0  0  0
  -52.1133    1.7049  -18.3196 N   0  0  0  0  0
  -52.8314    1.2901  -19.8425 S   0  0  0  0  0
  -47.8648    1.4663  -22.2087 S   0  0  0  0  0
  -53.8791    0.2351  -19.6207 O   0  0  0  0  0
  -53.4782    2.5091  -20.4360 O   0  0  0  0  0
  -50.4016    2.8791  -14.6496 O   0  0  0  0  0
  -51.7237    3.5228  -16.4183 O   0  0  0  0  0
  -48.8796   -1.7985  -15.2716 O   0  0  0  0  0
  -50.0249   -2.6724  -17.8027 O   0  0  0  0  0
  -46.4446    0.1037  -23.9278 O   0  0  0  0  0
  1 19  1  0  0  0
  3  4  1  0  0  0
  3 22  1  0  0  0
  5  6  1  0  0  0
  7  2  1  0  0  0
  9 10  1  0  0  0
 10 28  1  0  0  0
 11 12  1  0  0  0
 11 27  1  0  0  0
 13 14  1  0  0  0
 13  8  1  0  0  0
 14 26  1  0  0  0
 15 26  1  0  0  0
 16 27  1  0  0  0
 17 28  1  0  0  0
 18 22  1  0  0  0
 18 19  1  0  0  0
 19  2  1  0  0  0
 20  8  1  0  0  0
 21  5  1  0  0  0
 21 20  1  0  0  0
  2  3  2  0  0  0
  4  5  2  0  0  0
  6  7  2  0  0  0
  8  9  2  0  0  0
 10 11  2  0  0  0
 12 13  2  0  0  0
 14 25  2  0  0  0
 18 29  2  0  0  0
 21 23  2  0  0  0
 21 24  2  0  0  0
M  END
> <rmsd>
0.693735719

$$$$
ZINC000223871494 PubChem-100324810


 30 32  0  0  0  0  0  0  0  0999 V2000
  -48.6629   -0.9585  -25.5393 C   0  0  0  0  0
  -49.0514   -1.0937  -24.1115 C   0  0  0  0  0
  -49.7680   -0.0709  -23.4833 C   0  0  0  0  0
  -50.1290   -0.1954  -22.1390 C   0  0  0  0  0
  -49.7901   -1.3553  -21.4206 C   0  0  0  0  0
  -49.0650   -2.3741  -22.0548 C   0  0  0  0  0
  -48.6958   -2.2416  -23.3966 C   0  0  0  0  0
  -51.2480   -0.5625  -19.5522 C   0  0  0  0  0
  -50.9936    0.8490  -20.0798 C   0  0  0  0  0
  -52.1004    1.7669  -19.6735 C   0  0  0  0  0
  -53.2957    3.0062  -17.8145 C   0  0  0  0  0
  -54.6098    2.2418  -17.7800 C   0  0  0  0  0
  -52.9563    3.5339  -16.4574 C   0  0  0  0  0
  -52.8624    4.9165  -16.2664 C   0  0  0  0  0
  -52.5400    5.4320  -15.0078 C   0  0  0  0  0
  -52.3104    4.5673  -13.9321 C   0  0  0  0  0
  -52.3976    3.1837  -14.1212 C   0  0  0  0  0
  -52.7198    2.6672  -15.3792 C   0  0  0  0  0
  -50.1288    5.3715  -12.2237 C   0  0  0  0  0
  -47.7420   -2.3582  -18.8876 C   0  0  0  0  0
  -50.2153   -1.4689  -20.0505 N   0  0  0  0  0
  -52.2239    2.1478  -18.3014 N   0  0  0  0  0
  -50.8321    0.8318  -21.5014 O   0  0  0  0  0
  -52.9207    2.1959  -20.5304 O   0  0  0  0  0
  -52.3980    4.2936  -11.2808 O   0  0  0  0  0
  -52.5320    6.5640  -12.1781 O   0  0  0  0  0
  -50.0701   -2.4298  -17.5817 O   0  0  0  0  0
  -49.7941   -4.0116  -19.4292 O   0  0  0  0  0
  -51.8940    5.2149  -12.3558 S   0  0  0  0  0
  -49.4997   -2.6148  -18.9600 S   0  0  0  0  0
  1  2  1  0  0  0
  3  4  1  0  0  0
  4 23  1  0  0  0
  5  6  1  0  0  0
  5 21  1  0  0  0
  7  2  1  0  0  0
  8 21  1  0  0  0
  8  9  1  0  0  0
  9 23  1  0  0  0
  9 10  1  0  0  0
 10 22  1  0  0  0
 11 22  1  0  0  0
 11 12  1  0  0  0
 11 13  1  0  0  0
 14 15  1  0  0  0
 16 17  1  0  0  0
 18 13  1  0  0  0
 29 16  1  0  0  0
 29 19  1  0  0  0
 30 21  1  0  0  0
 30 20  1  0  0  0
  2  3  2  0  0  0
  4  5  2  0  0  0
  6  7  2  0  0  0
 10 24  2  0  0  0
 13 14  2  0  0  0
 15 16  2  0  0  0
 17 18  2  0  0  0
 29 25  2  0  0  0
 29 26  2  0  0  0
 30 27  2  0  0  0
 30 28  2  0  0  0
M  END
> <rmsd>
0.571933806

$$$$
ZINC000096181314 ZINC96181314 PubChem-97457186


 24 26  0  0  0  0  0  0  0  0999 V2000
  -48.2830   -0.6445  -25.5083 C   0  0  0  0  0
  -48.7597   -0.4576  -24.1134 C   0  0  0  0  0
  -48.6105    0.7819  -23.4840 C   0  0  0  0  0
  -49.0587    0.9586  -22.1715 C   0  0  0  0  0
  -49.6557   -0.1029  -21.4830 C   0  0  0  0  0
  -49.8067   -1.3450  -22.1190 C   0  0  0  0  0
  -49.3584   -1.5208  -23.4311 C   0  0  0  0  0
  -50.1350    0.1153  -20.0803 C   0  0  0  0  0
  -51.6656   -0.0348  -19.9941 C   0  0  0  0  0
  -51.9724   -1.0949  -18.9279 C   0  0  0  0  0
  -50.6320   -1.5444  -18.5042 C   0  0  0  0  0
  -48.1875   -0.9363  -18.7834 C   0  0  0  0  0
  -52.3032    1.2686  -19.6443 C   0  0  0  0  0
  -52.4672    3.1809  -17.9404 C   0  0  0  0  0
  -53.4012    3.9251  -18.6750 C   0  0  0  0  0
  -53.8656    5.1397  -18.1687 C   0  0  0  0  0
  -53.3981    5.6033  -16.9388 C   0  0  0  0  0
  -52.4680    4.8388  -16.2324 C   0  0  0  0  0
  -51.9582    5.3160  -14.9207 C   0  0  0  0  0
  -50.4354   -2.4201  -17.6210 O   0  0  0  0  0
  -53.1380    1.7725  -20.4413 O   0  0  0  0  0
  -49.5856   -0.8789  -19.1776 N   0  0  0  0  0
  -51.9580    1.9279  -18.4165 N   0  0  0  0  0
  -52.0278    3.6572  -16.7433 N   0  0  0  0  0
  1  2  1  0  0  0
  3  4  1  0  0  0
  5  6  1  0  0  0
  7  2  1  0  0  0
  8  5  1  0  0  0
  8  9  1  0  0  0
  8 22  1  0  0  0
  9 10  1  0  0  0
  9 13  1  0  0  0
 10 11  1  0  0  0
 11 22  1  0  0  0
 12 22  1  0  0  0
 13 23  1  0  0  0
 14 24  1  0  0  0
 15 16  1  0  0  0
 17 18  1  0  0  0
 19 18  1  0  0  0
 23 14  1  0  0  0
  2  3  2  0  0  0
  4  5  2  0  0  0
  6  7  2  0  0  0
 11 20  2  0  0  0
 13 21  2  0  0  0
 14 15  2  0  0  0
 16 17  2  0  0  0
 18 24  2  0  0  0
M  END
> <rmsd>
0.559319973

$$$$
ZINC000065307388 ZINC65307388 ChemDiv-P103-1197 MolPort-010-961-951 PubChem-53200924


 25 27  0  0  0  0  0  0  0  0999 V2000
  -47.6454   -0.8007  -25.4896 C   0  0  0  0  0
  -48.9783   -1.4134  -25.1084 C   0  0  0  0  0
  -49.2124   -1.2553  -23.6467 C   0  0  0  0  0
  -49.5392   -1.6443  -21.6195 C   0  0  0  0  0
  -49.7388   -2.3556  -20.3321 C   0  0  0  0  0
  -49.9878   -1.7143  -19.0907 C   0  0  0  0  0
  -51.8819    0.0724  -19.2365 C   0  0  0  0  0
  -52.3887    1.4702  -19.2856 C   0  0  0  0  0
  -52.8149    3.6603  -18.1140 C   0  0  0  0  0
  -52.6156    4.2576  -16.7665 C   0  0  0  0  0
  -51.1900    5.3430  -15.2068 C   0  0  0  0  0
  -52.2004    5.3305  -14.2424 C   0  0  0  0  0
  -53.4363    4.7628  -14.5577 C   0  0  0  0  0
  -53.6486    4.2191  -15.8259 C   0  0  0  0  0
  -50.0964   -3.8225  -17.9848 C   0  0  0  0  0
  -49.8580   -4.4940  -19.1800 C   0  0  0  0  0
  -49.6806   -3.7559  -20.3477 C   0  0  0  0  0
  -49.3410   -2.2868  -22.7926 N   0  0  0  0  0
  -49.5290   -0.3041  -21.7695 N   0  0  0  0  0
  -52.3341    2.2883  -18.1166 N   0  0  0  0  0
  -51.4153    4.8083  -16.4375 N   0  0  0  0  0
  -50.1548   -2.4660  -17.9677 N   0  0  0  0  0
  -49.3258   -0.1038  -23.0353 O   0  0  0  0  0
  -52.8738    1.9172  -20.3588 O   0  0  0  0  0
  -50.0942    0.0682  -18.9093 S   0  0  0  0  0
  1  2  1  0  0  0
  2  3  1  0  0  0
  3 23  1  0  0  0
  4 18  1  0  0  0
  4  5  1  0  0  0
  5  6  1  0  0  0
  6 25  1  0  0  0
  7 25  1  0  0  0
  7  8  1  0  0  0
  8 20  1  0  0  0
  9 20  1  0  0  0
  9 10  1  0  0  0
 11 21  1  0  0  0
 12 13  1  0  0  0
 14 10  1  0  0  0
 15 22  1  0  0  0
 16 17  1  0  0  0
 19 23  1  0  0  0
  3 18  2  0  0  0
  4 19  2  0  0  0
  6 22  2  0  0  0
  8 24  2  0  0  0
 10 21  2  0  0  0
 11 12  2  0  0  0
 13 14  2  0  0  0
 15 16  2  0  0  0
 17  5  2  0  0  0
M  END
> <rmsd>
0.545535147

$$$$
ZINC000002118541 MCULE-8742096214 MolPort-002-525-345


 31 33  0  0  0  0  0  0  0  0999 V2000
  -51.9839    4.1149  -14.2173 C   0  0  0  0  0
  -53.4377    3.7225  -16.3520 C   0  0  0  0  0
  -53.6563    3.5444  -17.8451 C   0  0  0  0  0
  -53.4121    2.1013  -18.2661 C   0  0  0  0  0
  -51.4022    0.7615  -17.5405 C   0  0  0  0  0
  -49.9410    0.4890  -17.6527 C   0  0  0  0  0
  -49.6449   -0.2765  -18.9109 C   0  0  0  0  0
  -49.3024    0.3918  -20.1003 C   0  0  0  0  0
  -49.1902    1.8869  -20.1255 C   0  0  0  0  0
  -49.0628   -0.3610  -21.2605 C   0  0  0  0  0
  -48.7171    0.2529  -22.4834 C   0  0  0  0  0
  -48.4976   -0.5709  -23.5849 C   0  0  0  0  0
  -48.6076   -1.9298  -23.5077 C   0  0  0  0  0
  -48.0760   -1.5164  -25.5350 C   0  0  0  0  0
  -48.1537   -0.2787  -24.8894 C   0  0  0  0  0
  -47.9153    1.0859  -25.4905 C   0  0  0  0  0
  -49.1688    1.9311  -25.3633 C   0  0  0  0  0
  -47.5522    0.9896  -26.9631 C   0  0  0  0  0
  -46.7772    1.7778  -24.7638 C   0  0  0  0  0
  -48.9461   -2.5756  -22.3222 C   0  0  0  0  0
  -49.1767   -1.7807  -21.1848 C   0  0  0  0  0
  -49.7369   -1.6803  -18.9231 C   0  0  0  0  0
  -54.0136    1.8424  -19.6068 C   0  0  0  0  0
  -51.6980    4.1168  -16.0080 S   0  0  0  0  0
  -51.9855    1.8166  -18.3052 N   0  0  0  0  0
  -52.1153    0.0424  -16.7912 O   0  0  0  0  0
  -48.3551   -2.4777  -24.6701 O   0  0  0  0  0
  -49.5025   -2.3644  -20.0381 O   0  0  0  0  0
  -50.0434   -2.3064  -17.8735 O   0  0  0  0  0
  -55.0187    0.8939  -19.7364 O   0  0  0  0  0
  -53.6122    2.4711  -20.6222 O   0  0  0  0  0
  1 24  1  0  0  0
  2 24  1  0  0  0
  2  3  1  0  0  0
  4  3  1  0  0  0
  4 25  1  0  0  0
  4 23  1  0  0  0
  6  5  1  0  0  0
  6  7  1  0  0  0
  8 10  1  0  0  0
  9  8  1  0  0  0
 11 12  1  0  0  0
 13 27  1  0  0  0
 13 20  1  0  0  0
 14 27  1  0  0  0
 15 12  1  0  0  0
 16 15  1  0  0  0
 16 17  1  0  0  0
 16 18  1  0  0  0
 16 19  1  0  0  0
 21 28  1  0  0  0
 21 10  1  0  0  0
 22 28  1  0  0  0
 22  7  1  0  0  0
 23 30  1  0  0  0
 25  5  1  0  0  0
  5 26  2  0  0  0
  7  8  2  0  0  0
 10 11  2  0  0  0
 12 13  2  0  0  0
 14 15  2  0  0  0
 20 21  2  0  0  0
 22 29  2  0  0  0
 23 31  2  0  0  0
M  END
> <rmsd>
0.544109404

$$$$
ZINC000079361855 ZINC79361855 PubChem-96551248


 24 26  0  0  0  0  0  0  0  0999 V2000
  -51.6912    4.2359  -14.3479 C   0  0  0  0  0
  -52.2638    4.0923  -15.7117 C   0  0  0  0  0
  -51.8906    3.0118  -16.5143 C   0  0  0  0  0
  -52.4342    2.8829  -17.7949 C   0  0  0  0  0
  -53.3462    3.8445  -18.2499 C   0  0  0  0  0
  -53.6952    4.9108  -17.4185 C   0  0  0  0  0
  -52.4902    1.4630  -19.9315 C   0  0  0  0  0
  -51.9833    0.2435  -20.6378 C   0  0  0  0  0
  -52.6613   -1.0376  -20.1470 C   0  0  0  0  0
  -52.2428   -1.3932  -18.7254 C   0  0  0  0  0
  -50.7553   -1.3612  -18.5698 C   0  0  0  0  0
  -50.4518    0.1395  -20.5965 C   0  0  0  0  0
  -49.9273   -0.6036  -21.7864 C   0  0  0  0  0
  -50.1439   -1.9339  -22.1040 C   0  0  0  0  0
  -49.1042   -0.0802  -22.7602 C   0  0  0  0  0
  -48.0321   -0.9827  -24.8062 C   0  0  0  0  0
  -48.5729   -0.2039  -18.9725 C   0  0  0  0  0
  -53.1512    5.0122  -16.1762 N   0  0  0  0  0
  -52.0383    1.7675  -18.6033 N   0  0  0  0  0
  -49.9552   -0.4566  -19.3512 N   0  0  0  0  0
  -49.4718   -2.1935  -23.2421 N   0  0  0  0  0
  -48.8605   -1.0833  -23.6194 N   0  0  0  0  0
  -53.3332    2.1956  -20.5136 O   0  0  0  0  0
  -50.2169   -2.1024  -17.7050 O   0  0  0  0  0
  1  2  1  0  0  0
  2 18  1  0  0  0
  3  4  1  0  0  0
  4 19  1  0  0  0
  5  6  1  0  0  0
  8  7  1  0  0  0
  8  9  1  0  0  0
  9 10  1  0  0  0
 10 11  1  0  0  0
 11 20  1  0  0  0
 12 20  1  0  0  0
 12 13  1  0  0  0
 12  8  1  0  0  0
 13 14  1  0  0  0
 16 22  1  0  0  0
 17 20  1  0  0  0
 19  7  1  0  0  0
 22 21  1  0  0  0
 22 15  1  0  0  0
  2  3  2  0  0  0
  4  5  2  0  0  0
  6 18  2  0  0  0
  7 23  2  0  0  0
 11 24  2  0  0  0
 14 21  2  0  0  0
 15 13  2  0  0  0
M  END
> <rmsd>
0.569787204

$$$$
ZINC000012772569 CSC027018696 MCULE-2308435649 MolPort-005-665-378


 31 34  0  0  0  0  0  0  0  0999 V2000
  -51.7764    4.3742  -14.7841 C   0  0  0  0  0
  -51.4434    2.2803  -16.0636 C   0  0  0  0  0
  -51.5930    1.5850  -17.2741 C   0  0  0  0  0
  -52.1934    1.7903  -19.7495 C   0  0  0  0  0
  -50.9707    1.2217  -20.3546 C   0  0  0  0  0
  -51.0634    0.4308  -21.5088 C   0  0  0  0  0
  -49.9125   -0.0966  -22.1000 C   0  0  0  0  0
  -48.6490    0.1716  -21.5445 C   0  0  0  0  0
  -47.5179   -0.3733  -22.1667 C   0  0  0  0  0
  -48.9097   -1.3970  -23.8019 C   0  0  0  0  0
  -49.0937   -2.2317  -25.0348 C   0  0  0  0  0
  -48.9995   -1.3825  -26.2965 C   0  0  0  0  0
  -47.5541   -1.1793  -26.7344 C   0  0  0  0  0
  -46.8885   -0.0943  -25.9008 C   0  0  0  0  0
  -45.8700   -0.6751  -24.9223 C   0  0  0  0  0
  -46.4788   -1.6919  -23.9560 C   0  0  0  0  0
  -48.5518    0.9743  -20.4000 C   0  0  0  0  0
  -49.7063    1.4982  -19.8128 C   0  0  0  0  0
  -51.1659    0.2514  -17.3638 C   0  0  0  0  0
  -50.5645   -0.3867  -16.2727 C   0  0  0  0  0
  -50.4049    0.3179  -15.0725 C   0  0  0  0  0
  -50.8428    1.6396  -14.9678 C   0  0  0  0  0
  -51.8929    3.6024  -15.9717 O   0  0  0  0  0
  -46.3685   -0.1482  -21.6929 O   0  0  0  0  0
  -53.2207    1.9423  -20.4626 O   0  0  0  0  0
  -50.2667   -2.4251  -17.5750 O   0  0  0  0  0
  -49.5872   -2.3226  -15.4175 O   0  0  0  0  0
  -52.2349    2.2288  -18.3841 N   0  0  0  0  0
  -47.6628   -1.1469  -23.2874 N   0  0  0  0  0
  -50.0117   -0.8678  -23.2093 N   0  0  0  0  0
  -50.1190   -1.7446  -16.3880 N   0  0  0  0  0
  1 23  1  0  0  0
  2 23  1  0  0  0
  3 28  1  0  0  0
  3 19  1  0  0  0
  4  5  1  0  0  0
  6  7  1  0  0  0
  7 30  1  0  0  0
  8  9  1  0  0  0
  8 17  1  0  0  0
  9 29  1  0  0  0
 11 10  1  0  0  0
 11 12  1  0  0  0
 12 13  1  0  0  0
 13 14  1  0  0  0
 14 15  1  0  0  0
 15 16  1  0  0  0
 16 29  1  0  0  0
 18  5  1  0  0  0
 20 31  1  0  0  0
 20 21  1  0  0  0
 22  2  1  0  0  0
 28  4  1  0  0  0
 29 10  1  0  0  0
 31 26  1  0  0  0
  2  3  2  0  0  0
  4 25  2  0  0  0
  5  6  2  0  0  0
  7  8  2  0  0  0
  9 24  2  0  0  0
 10 30  2  0  0  0
 17 18  2  0  0  0
 19 20  2  0  0  0
 21 22  2  0  0  0
 31 27  2  0  0  0
M  CHG  2  31   1  26  -1
M  END
> <rmsd>
0.474272341

$$$$
ZINC000012706054 ZINC12706054 PubChem-25450279


 32 34  0  0  0  0  0  0  0  0999 V2000
  -50.8132    3.9101  -21.0838 C   0  0  0  0  0
  -50.7949    2.9736  -19.8824 C   0  0  0  0  0
  -52.1223    2.3262  -19.5997 C   0  0  0  0  0
  -51.7595    2.4591  -17.0872 C   0  0  0  0  0
  -51.7354    3.9659  -16.8892 C   0  0  0  0  0
  -50.7401    4.3174  -15.8118 C   0  0  0  0  0
  -51.3813    5.4707  -15.1015 C   0  0  0  0  0
  -52.7478    5.5833  -15.7388 C   0  0  0  0  0
  -49.4793    1.1322  -21.0821 C   0  0  0  0  0
  -50.4731    0.9502  -22.0570 C   0  0  0  0  0
  -50.2508    0.1205  -23.1589 C   0  0  0  0  0
  -49.0281   -0.5375  -23.3048 C   0  0  0  0  0
  -48.0236   -0.3614  -22.3458 C   0  0  0  0  0
  -48.2505    0.4694  -21.2451 C   0  0  0  0  0
  -48.8300    1.9543  -18.7982 C   0  0  0  0  0
  -48.6111    0.6978  -18.0513 C   0  0  0  0  0
  -47.6358    0.6317  -17.0518 C   0  0  0  0  0
  -47.4416   -0.5485  -16.3344 C   0  0  0  0  0
  -48.2207   -1.6879  -16.5985 C   0  0  0  0  0
  -49.2159   -1.6252  -17.6058 C   0  0  0  0  0
  -49.3969   -0.4311  -18.3123 C   0  0  0  0  0
  -50.0026   -3.9879  -17.3483 C   0  0  0  0  0
  -47.0317   -2.9845  -14.8510 C   0  0  0  0  0
  -52.8600    1.9516  -20.5490 O   0  0  0  0  0
  -52.9977    4.4182  -16.4805 O   0  0  0  0  0
  -48.2832    3.0190  -18.4004 O   0  0  0  0  0
  -50.0479   -2.7012  -17.9494 O   0  0  0  0  0
  -48.0129   -2.8662  -15.8727 O   0  0  0  0  0
  -52.5597    2.1098  -18.2539 N   0  0  0  0  0
  -49.7018    1.9975  -19.9403 N   0  0  0  0  0
  -46.4790   -1.1741  -22.5054 Cl  0  0  0  0  0
  -48.8226   -1.3372  -24.3808 F   0  0  0  0  0
  2  1  1  0  0  0
  2  3  1  0  0  0
  2 30  1  0  0  0
  3 29  1  0  0  0
  4 29  1  0  0  0
  5  4  1  0  0  0
  5  6  1  0  0  0
  5 25  1  0  0  0
  6  7  1  0  0  0
  7  8  1  0  0  0
  8 25  1  0  0  0
 10 11  1  0  0  0
 12 13  1  0  0  0
 12 32  1  0  0  0
 13 31  1  0  0  0
 14  9  1  0  0  0
 15 16  1  0  0  0
 17 18  1  0  0  0
 19 20  1  0  0  0
 19 28  1  0  0  0
 20 27  1  0  0  0
 21 16  1  0  0  0
 22 27  1  0  0  0
 23 28  1  0  0  0
 30  9  1  0  0  0
 30 15  1  0  0  0
  3 24  2  0  0  0
  9 10  2  0  0  0
 11 12  2  0  0  0
 13 14  2  0  0  0
 15 26  2  0  0  0
 16 17  2  0  0  0
 18 19  2  0  0  0
 20 21  2  0  0  0
M  END
> <rmsd>
0.728905439

$$$$
ZINC000072241409 ZINC72241409 PubChem-95739679


 24 26  0  0  0  0  0  0  0  0999 V2000
  -52.5621    4.9840  -14.7122 C   0  0  0  0  0
  -52.6491    4.2394  -15.9958 C   0  0  0  0  0
  -51.8594    3.1630  -16.3517 C   0  0  0  0  0
  -52.3532    2.8705  -17.6087 C   0  0  0  0  0
  -52.3629    1.4864  -19.7388 C   0  0  0  0  0
  -51.7789    0.3348  -20.5061 C   0  0  0  0  0
  -50.2415    0.2550  -20.4295 C   0  0  0  0  0
  -50.7154   -1.4433  -18.6340 C   0  0  0  0  0
  -52.1775   -1.2860  -18.8985 C   0  0  0  0  0
  -48.3852   -0.5755  -18.9406 C   0  0  0  0  0
  -49.6737   -0.2130  -21.7354 C   0  0  0  0  0
  -48.8504    0.6478  -22.4692 C   0  0  0  0  0
  -48.3040    0.2300  -23.6863 C   0  0  0  0  0
  -48.5782   -1.0514  -24.1730 C   0  0  0  0  0
  -49.3981   -1.9165  -23.4427 C   0  0  0  0  0
  -49.9448   -1.4996  -22.2258 C   0  0  0  0  0
  -53.3484    3.7083  -17.9557 N   0  0  0  0  0
  -51.8645    1.8096  -18.4344 N   0  0  0  0  0
  -49.7879   -0.6012  -19.3288 N   0  0  0  0  0
  -53.4979    4.5212  -16.9547 O   0  0  0  0  0
  -53.3130    2.1392  -20.2462 O   0  0  0  0  0
  -50.3194   -2.2635  -17.7636 O   0  0  0  0  0
  -52.4129   -0.9045  -20.2373 O   0  0  0  0  0
  -47.8938   -1.5734  -25.6968 Cl  0  0  0  0  0
  1  2  1  0  0  0
  2 20  1  0  0  0
  3  4  1  0  0  0
  4 18  1  0  0  0
  6  5  1  0  0  0
  6  7  1  0  0  0
  6 23  1  0  0  0
  7 19  1  0  0  0
  7 11  1  0  0  0
  9  8  1  0  0  0
  9 23  1  0  0  0
 10 19  1  0  0  0
 12 13  1  0  0  0
 14 15  1  0  0  0
 14 24  1  0  0  0
 16 11  1  0  0  0
 17 20  1  0  0  0
 18  5  1  0  0  0
 19  8  1  0  0  0
  2  3  2  0  0  0
  4 17  2  0  0  0
  5 21  2  0  0  0
  8 22  2  0  0  0
 11 12  2  0  0  0
 13 14  2  0  0  0
 15 16  2  0  0  0
M  END
> <rmsd>
0.538790822

$$$$
ZINC000053230109 ZINC53230109 PubChem-94477473


 25 27  0  0  0  0  0  0  0  0999 V2000
  -47.0140   -0.7337  -22.5086 C   0  0  0  0  0
  -47.9838   -0.0775  -21.7446 C   0  0  0  0  0
  -49.3000    0.0120  -22.2104 C   0  0  0  0  0
  -49.6473   -0.5657  -23.4365 C   0  0  0  0  0
  -48.6771   -1.2213  -24.2007 C   0  0  0  0  0
  -47.3606   -1.3052  -23.7369 C   0  0  0  0  0
  -50.3398    0.6838  -21.3797 C   0  0  0  0  0
  -50.4642   -0.5102  -19.3308 C   0  0  0  0  0
  -50.5045   -1.9797  -18.9464 C   0  0  0  0  0
  -49.5613   -2.7799  -19.8182 C   0  0  0  0  0
  -48.9123   -3.7366  -18.8653 C   0  0  0  0  0
  -49.5536   -3.4161  -17.5361 C   0  0  0  0  0
  -52.4904    0.1406  -20.4505 C   0  0  0  0  0
  -52.6282    1.4923  -19.8041 C   0  0  0  0  0
  -52.3666    2.8970  -17.6996 C   0  0  0  0  0
  -52.0531    4.1314  -15.5240 C   0  0  0  0  0
  -51.8061    3.7845  -14.0709 C   0  0  0  0  0
  -53.2157    4.0443  -14.5569 C   0  0  0  0  0
  -49.0132   -1.7778  -25.3889 F   0  0  0  0  0
  -51.1018   -0.3092  -20.6283 N   0  0  0  0  0
  -52.2896    1.6643  -18.4226 N   0  0  0  0  0
  -51.9997    2.9166  -16.3201 N   0  0  0  0  0
  -50.1065   -2.1297  -17.6106 O   0  0  0  0  0
  -53.0715    2.4544  -20.4855 O   0  0  0  0  0
  -52.7510    3.9552  -18.2681 O   0  0  0  0  0
  2  3  1  0  0  0
  4  5  1  0  0  0
  5 19  1  0  0  0
  6  1  1  0  0  0
  7  3  1  0  0  0
  7 20  1  0  0  0
  8 20  1  0  0  0
  9  8  1  0  0  0
  9 10  1  0  0  0
  9 23  1  0  0  0
 10 11  1  0  0  0
 11 12  1  0  0  0
 12 23  1  0  0  0
 13 20  1  0  0  0
 13 14  1  0  0  0
 14 21  1  0  0  0
 15 22  1  0  0  0
 16 22  1  0  0  0
 16 17  1  0  0  0
 17 18  1  0  0  0
 18 16  1  0  0  0
 21 15  1  0  0  0
  1  2  2  0  0  0
  3  4  2  0  0  0
  5  6  2  0  0  0
 14 24  2  0  0  0
 15 25  2  0  0  0
M  END
> <rmsd>
0.644808114

$$$$
ZINC000169781247 ChemDiv-S640-0707 MolPort-044-356-519 PubChem-91923255


 26 28  0  0  0  0  0  0  0  0999 V2000
  -53.0434    3.0472  -18.0396 C   0  0  0  0  0
  -52.3493    1.5159  -19.9174 C   0  0  0  0  0
  -51.4252    0.4747  -20.4605 C   0  0  0  0  0
  -51.3161   -0.6995  -19.4999 C   0  0  0  0  0
  -49.5307   -1.4783  -17.8827 C   0  0  0  0  0
  -48.2464   -1.1909  -17.1690 C   0  0  0  0  0
  -48.4989   -0.8118  -15.7148 C   0  0  0  0  0
  -49.1500    0.5288  -15.5700 C   0  0  0  0  0
  -49.6269    1.0513  -14.3824 C   0  0  0  0  0
  -50.1283    2.2695  -14.7975 C   0  0  0  0  0
  -51.3286    4.3857  -14.4583 C   0  0  0  0  0
  -49.1654    0.4213  -19.5242 C   0  0  0  0  0
  -50.0170    1.0514  -20.6126 C   0  0  0  0  0
  -49.4674    0.7083  -21.9592 C   0  0  0  0  0
  -48.8225   -0.3156  -23.6525 C   0  0  0  0  0
  -48.5018   -1.3912  -24.6261 C   0  0  0  0  0
  -52.1766    2.0177  -18.5896 N   0  0  0  0  0
  -49.9819   -0.6250  -18.9407 N   0  0  0  0  0
  -49.9514    2.4483  -16.1199 N   0  0  0  0  0
  -49.3517   -0.5482  -22.4357 N   0  0  0  0  0
  -48.6283    0.9935  -23.8980 N   0  0  0  0  0
  -53.2704    1.9622  -20.6511 O   0  0  0  0  0
  -50.2232   -2.4729  -17.5356 O   0  0  0  0  0
  -50.7420    3.1943  -13.9552 O   0  0  0  0  0
  -49.3578    1.3767  -16.5506 O   0  0  0  0  0
  -49.0401    1.5953  -22.8226 O   0  0  0  0  0
  1 17  1  0  0  0
  3  2  1  0  0  0
  3  4  1  0  0  0
  4 18  1  0  0  0
  6  5  1  0  0  0
  6  7  1  0  0  0
  7  8  1  0  0  0
  8 25  1  0  0  0
  9 10  1  0  0  0
 10 24  1  0  0  0
 11 24  1  0  0  0
 12 18  1  0  0  0
 12 13  1  0  0  0
 13 14  1  0  0  0
 13  3  1  0  0  0
 14 26  1  0  0  0
 15 20  1  0  0  0
 16 15  1  0  0  0
 17  2  1  0  0  0
 18  5  1  0  0  0
 19 25  1  0  0  0
 21 26  1  0  0  0
  2 22  2  0  0  0
  5 23  2  0  0  0
  8  9  2  0  0  0
 10 19  2  0  0  0
 14 20  2  0  0  0
 15 21  2  0  0  0
M  END
> <rmsd>
0.597607791

$$$$
ZINC000005207199 MCULE-6774306245 MolPort-002-650-264


 30 33  0  0  0  0  0  0  0  0999 V2000
  -49.7861    0.3172  -22.0149 C   0  0  0  0  0
  -49.7148    0.2440  -19.5242 C   0  0  0  0  0
  -50.2385   -1.1108  -19.0883 C   0  0  0  0  0
  -49.6814   -1.4472  -17.7214 C   0  0  0  0  0
  -49.5228   -2.9356  -16.1025 C   0  0  0  0  0
  -51.4573    1.2704  -21.0602 C   0  0  0  0  0
  -51.6815    1.4021  -22.4373 C   0  0  0  0  0
  -50.5877    0.7775  -23.0093 C   0  0  0  0  0
  -50.2355    0.5710  -24.3374 C   0  0  0  0  0
  -48.6922   -0.3234  -25.9002 C   0  0  0  0  0
  -47.5117   -1.0066  -26.1975 C   0  0  0  0  0
  -46.7073   -1.4689  -25.1580 C   0  0  0  0  0
  -47.0853   -1.2471  -23.8352 C   0  0  0  0  0
  -48.2712   -0.5616  -23.5635 C   0  0  0  0  0
  -52.3813    1.7893  -20.0318 C   0  0  0  0  0
  -52.9890    2.0906  -17.5999 C   0  0  0  0  0
  -52.4570    1.6857  -16.2340 C   0  0  0  0  0
  -51.1311    2.3736  -15.9296 C   0  0  0  0  0
  -50.7956    4.7649  -16.5393 C   0  0  0  0  0
  -51.2005    5.9774  -16.0141 C   0  0  0  0  0
  -52.0102    4.4154  -14.7838 C   0  0  0  0  0
  -50.2933    0.6112  -20.8107 N   0  0  0  0  0
  -49.0675   -0.1034  -24.6051 N   0  0  0  0  0
  -48.6346   -0.3493  -22.2646 N   0  0  0  0  0
  -52.1184    1.5763  -18.6445 N   0  0  0  0  0
  -51.3173    3.8068  -15.7594 N   0  0  0  0  0
  -51.9580    5.7542  -14.9184 N   0  0  0  0  0
  -50.1700   -2.6869  -17.3123 O   0  0  0  0  0
  -50.9774    0.9957  -25.2668 O   0  0  0  0  0
  -53.4121    2.4244  -20.3850 O   0  0  0  0  0
  1 22  1  0  0  0
  1 24  1  0  0  0
  2 22  1  0  0  0
  2  3  1  0  0  0
  3  4  1  0  0  0
  4 28  1  0  0  0
  5 28  1  0  0  0
  6 15  1  0  0  0
  7  8  1  0  0  0
  8  9  1  0  0  0
  9 23  1  0  0  0
 11 12  1  0  0  0
 13 14  1  0  0  0
 14 23  1  0  0  0
 15 25  1  0  0  0
 16 25  1  0  0  0
 16 17  1  0  0  0
 17 18  1  0  0  0
 18 26  1  0  0  0
 20 27  1  0  0  0
 21 26  1  0  0  0
 22  6  1  0  0  0
 23 10  1  0  0  0
 26 19  1  0  0  0
  6  7  2  0  0  0
  8  1  2  0  0  0
  9 29  2  0  0  0
 10 11  2  0  0  0
 12 13  2  0  0  0
 14 24  2  0  0  0
 15 30  2  0  0  0
 19 20  2  0  0  0
 21 27  2  0  0  0
M  END
> <rmsd>
0.620533526

$$$$
ZINC000096181340 ZINC96181340 PubChem-97457212


 24 26  0  0  0  0  0  0  0  0999 V2000
  -48.2375   -0.6560  -25.4181 C   0  0  0  0  0
  -48.7314   -0.4428  -24.0329 C   0  0  0  0  0
  -49.3224   -1.4978  -23.3316 C   0  0  0  0  0
  -49.7869   -1.2971  -22.0287 C   0  0  0  0  0
  -49.6596   -0.0382  -21.4211 C   0  0  0  0  0
  -49.0700    1.0148  -22.1286 C   0  0  0  0  0
  -48.6058    0.8131  -23.4319 C   0  0  0  0  0
  -50.1560    0.2063  -20.0286 C   0  0  0  0  0
  -51.6850    0.0344  -19.9531 C   0  0  0  0  0
  -51.9851   -1.0119  -18.8715 C   0  0  0  0  0
  -50.6420   -1.4273  -18.4220 C   0  0  0  0  0
  -48.2057   -0.7805  -18.6859 C   0  0  0  0  0
  -52.3436    1.3340  -19.6279 C   0  0  0  0  0
  -52.6338    3.2902  -18.0625 C   0  0  0  0  0
  -52.0957    3.7592  -16.7574 C   0  0  0  0  0
  -52.7116    3.3800  -15.5625 C   0  0  0  0  0
  -52.1821    3.8060  -14.3429 C   0  0  0  0  0
  -51.0354    4.6039  -14.3389 C   0  0  0  0  0
  -50.9456    4.5515  -16.7114 C   0  0  0  0  0
  -50.4403   -2.2802  -17.5180 O   0  0  0  0  0
  -53.1820    1.8195  -20.4331 O   0  0  0  0  0
  -49.5998   -0.7570  -19.0972 N   0  0  0  0  0
  -52.0211    2.0202  -18.4163 N   0  0  0  0  0
  -50.4449    4.9565  -15.5129 N   0  0  0  0  0
  1  2  1  0  0  0
  3  4  1  0  0  0
  5  6  1  0  0  0
  7  2  1  0  0  0
  8  5  1  0  0  0
  8  9  1  0  0  0
  8 22  1  0  0  0
  9 10  1  0  0  0
  9 13  1  0  0  0
 10 11  1  0  0  0
 11 22  1  0  0  0
 12 22  1  0  0  0
 13 23  1  0  0  0
 14 23  1  0  0  0
 14 15  1  0  0  0
 16 17  1  0  0  0
 18 24  1  0  0  0
 19 15  1  0  0  0
  2  3  2  0  0  0
  4  5  2  0  0  0
  6  7  2  0  0  0
 11 20  2  0  0  0
 13 21  2  0  0  0
 15 16  2  0  0  0
 17 18  2  0  0  0
 19 24  2  0  0  0
M  END
> <rmsd>
0.459117591

$$$$
ZINC000072242268 ZINC72242268 PubChem-95740480


 24 26  0  0  0  0  0  0  0  0999 V2000
  -48.1995   -0.8440  -18.7316 C   0  0  0  0  0
  -50.1583    0.1895  -20.0277 C   0  0  0  0  0
  -51.6874    0.0229  -19.9453 C   0  0  0  0  0
  -51.9863   -1.0123  -18.8527 C   0  0  0  0  0
  -50.6425   -1.4453  -18.4223 C   0  0  0  0  0
  -52.3418    1.3272  -19.6311 C   0  0  0  0  0
  -52.6217    3.3002  -18.0850 C   0  0  0  0  0
  -52.0773    3.7815  -16.7869 C   0  0  0  0  0
  -50.9210    4.5689  -16.7615 C   0  0  0  0  0
  -50.3952    5.0009  -15.5399 C   0  0  0  0  0
  -51.0219    4.6412  -14.3426 C   0  0  0  0  0
  -52.1731    3.8476  -14.3666 C   0  0  0  0  0
  -52.6991    3.4154  -15.5880 C   0  0  0  0  0
  -49.6679   -0.0363  -21.4254 C   0  0  0  0  0
  -49.0250    1.0080  -22.0987 C   0  0  0  0  0
  -48.5594    0.8217  -23.4038 C   0  0  0  0  0
  -48.7355   -0.4105  -24.0403 C   0  0  0  0  0
  -49.3775   -1.4572  -23.3723 C   0  0  0  0  0
  -49.8433   -1.2720  -22.0676 C   0  0  0  0  0
  -49.6014   -0.7893  -19.1130 N   0  0  0  0  0
  -52.0136    2.0249  -18.4276 N   0  0  0  0  0
  -50.4392   -2.3011  -17.5214 O   0  0  0  0  0
  -53.1818    1.8066  -20.4384 O   0  0  0  0  0
  -48.2841   -0.5900  -25.3046 F   0  0  0  0  0
  1 20  1  0  0  0
  2 20  1  0  0  0
  2  3  1  0  0  0
  2 14  1  0  0  0
  3  4  1  0  0  0
  3  6  1  0  0  0
  4  5  1  0  0  0
  5 20  1  0  0  0
  6 21  1  0  0  0
  7 21  1  0  0  0
  7  8  1  0  0  0
  9 10  1  0  0  0
 11 12  1  0  0  0
 13  8  1  0  0  0
 15 16  1  0  0  0
 17 18  1  0  0  0
 17 24  1  0  0  0
 19 14  1  0  0  0
  5 22  2  0  0  0
  6 23  2  0  0  0
  8  9  2  0  0  0
 10 11  2  0  0  0
 12 13  2  0  0  0
 14 15  2  0  0  0
 16 17  2  0  0  0
 18 19  2  0  0  0
M  END
> <rmsd>
0.471152604

$$$$
ZINC000072241411 ZINC72241411 PubChem-95739681


 24 26  0  0  0  0  0  0  0  0999 V2000
  -52.5630    4.9847  -14.7128 C   0  0  0  0  0
  -52.6497    4.2401  -15.9964 C   0  0  0  0  0
  -51.8607    3.1632  -16.3519 C   0  0  0  0  0
  -52.3539    2.8710  -17.6091 C   0  0  0  0  0
  -52.3635    1.4867  -19.7391 C   0  0  0  0  0
  -51.7797    0.3350  -20.5062 C   0  0  0  0  0
  -50.2421    0.2551  -20.4296 C   0  0  0  0  0
  -50.7161   -1.4431  -18.6342 C   0  0  0  0  0
  -52.1781   -1.2857  -18.8985 C   0  0  0  0  0
  -48.3858   -0.5754  -18.9409 C   0  0  0  0  0
  -49.6745   -0.2129  -21.7356 C   0  0  0  0  0
  -49.9458   -1.4994  -22.2262 C   0  0  0  0  0
  -49.3992   -1.9163  -23.4431 C   0  0  0  0  0
  -48.5790   -1.0513  -24.1732 C   0  0  0  0  0
  -48.3044    0.2301  -23.6864 C   0  0  0  0  0
  -48.8509    0.6478  -22.4692 C   0  0  0  0  0
  -53.3484    3.7095  -17.9568 N   0  0  0  0  0
  -51.8655    1.8098  -18.4345 N   0  0  0  0  0
  -49.7885   -0.6010  -19.3290 N   0  0  0  0  0
  -53.4977    4.5225  -16.9557 O   0  0  0  0  0
  -53.3132    2.1399  -20.2469 O   0  0  0  0  0
  -50.3201   -2.2636  -17.7641 O   0  0  0  0  0
  -52.4138   -0.9042  -20.2373 O   0  0  0  0  0
  -47.8943   -1.5733  -25.6969 Cl  0  0  0  0  0
  1  2  1  0  0  0
  2 20  1  0  0  0
  3  4  1  0  0  0
  4 18  1  0  0  0
  6  5  1  0  0  0
  6  7  1  0  0  0
  6 23  1  0  0  0
  7 19  1  0  0  0
  7 11  1  0  0  0
  9  8  1  0  0  0
  9 23  1  0  0  0
 10 19  1  0  0  0
 12 13  1  0  0  0
 14 15  1  0  0  0
 14 24  1  0  0  0
 16 11  1  0  0  0
 17 20  1  0  0  0
 18  5  1  0  0  0
 19  8  1  0  0  0
  2  3  2  0  0  0
  4 17  2  0  0  0
  5 21  2  0  0  0
  8 22  2  0  0  0
 11 12  2  0  0  0
 13 14  2  0  0  0
 15 16  2  0  0  0
M  END
> <rmsd>
0.538842797

$$$$
ZINC000096181258 ZINC96181258 PubChem-97457130


 25 27  0  0  0  0  0  0  0  0999 V2000
  -48.2339   -0.6504  -25.4153 C   0  0  0  0  0
  -48.7287   -0.4388  -24.0303 C   0  0  0  0  0
  -48.6062    0.8172  -23.4288 C   0  0  0  0  0
  -49.0714    1.0174  -22.1257 C   0  0  0  0  0
  -49.6590   -0.0372  -21.4186 C   0  0  0  0  0
  -49.7833   -1.2961  -22.0268 C   0  0  0  0  0
  -49.3179   -1.4953  -23.3297 C   0  0  0  0  0
  -50.1567    0.2059  -20.0265 C   0  0  0  0  0
  -51.6856    0.0329  -19.9522 C   0  0  0  0  0
  -51.9856   -1.0135  -18.8705 C   0  0  0  0  0
  -50.6426   -1.4283  -18.4205 C   0  0  0  0  0
  -48.2067   -0.7790  -18.6823 C   0  0  0  0  0
  -52.3447    1.3321  -19.6273 C   0  0  0  0  0
  -52.6283    3.2930  -18.0667 C   0  0  0  0  0
  -52.0786    3.7691  -16.7659 C   0  0  0  0  0
  -52.7413    3.4412  -15.5779 C   0  0  0  0  0
  -52.2257    3.8595  -14.3478 C   0  0  0  0  0
  -51.0427    4.6024  -14.3018 C   0  0  0  0  0
  -50.3733    4.9254  -15.4858 C   0  0  0  0  0
  -50.8863    4.5085  -16.7183 C   0  0  0  0  0
  -50.4408   -2.2813  -17.5167 O   0  0  0  0  0
  -53.1831    1.8173  -20.4327 O   0  0  0  0  0
  -49.6004   -0.7573  -19.0951 N   0  0  0  0  0
  -52.0215    2.0191  -18.4165 N   0  0  0  0  0
  -50.2228    4.8244  -17.8584 F   0  0  0  0  0
  1  2  1  0  0  0
  3  4  1  0  0  0
  5  6  1  0  0  0
  7  2  1  0  0  0
  8  5  1  0  0  0
  8  9  1  0  0  0
  8 23  1  0  0  0
  9 10  1  0  0  0
  9 13  1  0  0  0
 10 11  1  0  0  0
 11 23  1  0  0  0
 12 23  1  0  0  0
 13 24  1  0  0  0
 14 24  1  0  0  0
 14 15  1  0  0  0
 16 17  1  0  0  0
 18 19  1  0  0  0
 20 25  1  0  0  0
 20 15  1  0  0  0
  2  3  2  0  0  0
  4  5  2  0  0  0
  6  7  2  0  0  0
 11 21  2  0  0  0
 13 22  2  0  0  0
 15 16  2  0  0  0
 17 18  2  0  0  0
 19 20  2  0  0  0
M  END
> <rmsd>
0.461043984

$$$$
ZINC000096180993 ZINC96180993 PubChem-97456961


 25 27  0  0  0  0  0  0  0  0999 V2000
  -48.1998   -0.8409  -18.7319 C   0  0  0  0  0
  -50.1591    0.1908  -20.0288 C   0  0  0  0  0
  -51.6883    0.0236  -19.9464 C   0  0  0  0  0
  -51.9867   -1.0120  -18.8541 C   0  0  0  0  0
  -50.6428   -1.4433  -18.4226 C   0  0  0  0  0
  -52.3426    1.3278  -19.6310 C   0  0  0  0  0
  -52.6192    3.3005  -18.0837 C   0  0  0  0  0
  -52.0751    3.7783  -16.7842 C   0  0  0  0  0
  -52.7092    3.4258  -15.5878 C   0  0  0  0  0
  -52.1830    3.8529  -14.3647 C   0  0  0  0  0
  -51.0194    4.6281  -14.3364 C   0  0  0  0  0
  -50.3809    4.9749  -15.5312 C   0  0  0  0  0
  -50.9065    4.5475  -16.7545 C   0  0  0  0  0
  -49.6682   -0.0362  -21.4261 C   0  0  0  0  0
  -49.8426   -1.2728  -22.0668 C   0  0  0  0  0
  -49.3757   -1.4594  -23.3709 C   0  0  0  0  0
  -48.7338   -0.4131  -24.0397 C   0  0  0  0  0
  -48.5588    0.8200  -23.4047 C   0  0  0  0  0
  -49.0253    1.0076  -22.1002 C   0  0  0  0  0
  -49.6019   -0.7866  -19.1128 N   0  0  0  0  0
  -52.0137    2.0243  -18.4272 N   0  0  0  0  0
  -50.4393   -2.2980  -17.5206 O   0  0  0  0  0
  -53.1823    1.8082  -20.4377 O   0  0  0  0  0
  -49.2522    5.7229  -15.5038 F   0  0  0  0  0
  -48.2828   -0.5937  -25.3042 F   0  0  0  0  0
  1 20  1  0  0  0
  2 20  1  0  0  0
  2  3  1  0  0  0
  2 14  1  0  0  0
  3  4  1  0  0  0
  3  6  1  0  0  0
  4  5  1  0  0  0
  5 20  1  0  0  0
  6 21  1  0  0  0
  7 21  1  0  0  0
  7  8  1  0  0  0
  9 10  1  0  0  0
 11 12  1  0  0  0
 12 24  1  0  0  0
 13  8  1  0  0  0
 15 16  1  0  0  0
 17 18  1  0  0  0
 17 25  1  0  0  0
 19 14  1  0  0  0
  5 22  2  0  0  0
  6 23  2  0  0  0
  8  9  2  0  0  0
 10 11  2  0  0  0
 12 13  2  0  0  0
 14 15  2  0  0  0
 16 17  2  0  0  0
 18 19  2  0  0  0
M  END
> <rmsd>
0.470470995

$$$$
ZINC000096180993 ZINC96180993 PubChem-97456961


 25 27  0  0  0  0  0  0  0  0999 V2000
  -48.2002   -0.8483  -18.7304 C   0  0  0  0  0
  -50.1595    0.1892  -20.0233 C   0  0  0  0  0
  -51.6885    0.0210  -19.9430 C   0  0  0  0  0
  -51.9874   -1.0154  -18.8518 C   0  0  0  0  0
  -50.6439   -1.4483  -18.4209 C   0  0  0  0  0
  -52.3445    1.3245  -19.6290 C   0  0  0  0  0
  -52.6257    3.2982  -18.0842 C   0  0  0  0  0
  -52.0674    3.7903  -16.7961 C   0  0  0  0  0
  -52.6771    3.4362  -15.5875 C   0  0  0  0  0
  -52.1370    3.8778  -14.3756 C   0  0  0  0  0
  -50.9839    4.6688  -14.3710 C   0  0  0  0  0
  -50.3696    5.0167  -15.5780 C   0  0  0  0  0
  -50.9091    4.5752  -16.7899 C   0  0  0  0  0
  -49.6667   -0.0328  -21.4208 C   0  0  0  0  0
  -49.0222    1.0133  -22.0898 C   0  0  0  0  0
  -48.5538    0.8309  -23.3943 C   0  0  0  0  0
  -48.7285   -0.3994  -24.0347 C   0  0  0  0  0
  -49.3724   -1.4481  -23.3712 C   0  0  0  0  0
  -49.8409   -1.2666  -22.0669 C   0  0  0  0  0
  -49.6026   -0.7902  -19.1093 N   0  0  0  0  0
  -52.0166    2.0231  -18.4260 N   0  0  0  0  0
  -50.4406   -2.3058  -17.5217 O   0  0  0  0  0
  -53.1839    1.8036  -20.4371 O   0  0  0  0  0
  -49.2508    5.7800  -15.5732 F   0  0  0  0  0
  -48.2751   -0.5751  -25.2989 F   0  0  0  0  0
  1 20  1  0  0  0
  2 20  1  0  0  0
  2  3  1  0  0  0
  2 14  1  0  0  0
  3  4  1  0  0  0
  3  6  1  0  0  0
  4  5  1  0  0  0
  5 20  1  0  0  0
  6 21  1  0  0  0
  7 21  1  0  0  0
  7  8  1  0  0  0
  9 10  1  0  0  0
 11 12  1  0  0  0
 12 24  1  0  0  0
 13  8  1  0  0  0
 15 16  1  0  0  0
 17 18  1  0  0  0
 17 25  1  0  0  0
 19 14  1  0  0  0
  5 22  2  0  0  0
  6 23  2  0  0  0
  8  9  2  0  0  0
 10 11  2  0  0  0
 12 13  2  0  0  0
 14 15  2  0  0  0
 16 17  2  0  0  0
 18 19  2  0  0  0
M  END
> <rmsd>
0.48073712

$$$$
ZINC000002155366 PubChem-1804311


 32 35  0  0  0  0  0  0  0  0999 V2000
  -51.5565    5.0513  -16.0756 C   0  0  0  0  0
  -52.1120    3.6788  -15.7453 C   0  0  0  0  0
  -53.5644    3.5732  -16.1842 C   0  0  0  0  0
  -53.6884    3.4580  -17.6985 C   0  0  0  0  0
  -53.4333    2.0316  -18.1678 C   0  0  0  0  0
  -54.0077    1.8218  -19.5288 C   0  0  0  0  0
  -51.4343    0.6581  -17.4742 C   0  0  0  0  0
  -49.9716    0.3903  -17.5778 C   0  0  0  0  0
  -49.6588   -0.3243  -18.8617 C   0  0  0  0  0
  -49.3001    0.3904  -20.0184 C   0  0  0  0  0
  -49.0446   -0.3148  -21.2054 C   0  0  0  0  0
  -49.1622   -1.7378  -21.1916 C   0  0  0  0  0
  -48.9180   -2.4837  -22.3663 C   0  0  0  0  0
  -48.5626   -1.7871  -23.5205 C   0  0  0  0  0
  -48.4432   -0.4182  -23.5250 C   0  0  0  0  0
  -48.6798    0.3540  -22.3937 C   0  0  0  0  0
  -48.0826   -0.0694  -24.8021 C   0  0  0  0  0
  -48.0325   -1.2598  -25.5037 C   0  0  0  0  0
  -47.6649   -1.3423  -26.9520 C   0  0  0  0  0
  -47.8403    0.0281  -27.6256 C   0  0  0  0  0
  -47.2186    1.1523  -26.7813 C   0  0  0  0  0
  -47.9204    1.2828  -25.4214 C   0  0  0  0  0
  -49.0406   -3.9705  -22.3841 C   0  0  0  0  0
  -49.7517   -1.7252  -18.9315 C   0  0  0  0  0
  -49.1875    1.8855  -19.9806 C   0  0  0  0  0
  -53.5865    2.4872  -20.5123 O   0  0  0  0  0
  -55.0099    0.8793  -19.7131 O   0  0  0  0  0
  -52.1600   -0.1006  -16.7778 O   0  0  0  0  0
  -48.3099   -2.2805  -24.7149 O   0  0  0  0  0
  -49.5043   -2.3640  -20.0698 O   0  0  0  0  0
  -50.0715   -2.3931  -17.9119 O   0  0  0  0  0
  -52.0049    1.7536  -18.1902 N   0  0  0  0  0
  1  2  1  0  0  0
  2  3  1  0  0  0
  3  4  1  0  0  0
  5  4  1  0  0  0
  5  6  1  0  0  0
  5 32  1  0  0  0
  6 27  1  0  0  0
  8  7  1  0  0  0
  8  9  1  0  0  0
 10 11  1  0  0  0
 12 13  1  0  0  0
 12 30  1  0  0  0
 14 15  1  0  0  0
 14 29  1  0  0  0
 15 17  1  0  0  0
 16 11  1  0  0  0
 18 29  1  0  0  0
 19 18  1  0  0  0
 19 20  1  0  0  0
 20 21  1  0  0  0
 21 22  1  0  0  0
 22 17  1  0  0  0
 23 13  1  0  0  0
 24 30  1  0  0  0
 24  9  1  0  0  0
 25 10  1  0  0  0
 32  7  1  0  0  0
  6 26  2  0  0  0
  7 28  2  0  0  0
  9 10  2  0  0  0
 11 12  2  0  0  0
 13 14  2  0  0  0
 15 16  2  0  0  0
 17 18  2  0  0  0
 24 31  2  0  0  0
M  END
> <rmsd>
0.618191779

$$$$
ZINC000095989116 PubChem-97337050


 30 32  0  0  0  0  0  0  0  0999 V2000
  -54.4718    0.3053  -14.2194 C   0  0  0  0  0
  -53.2492    1.0892  -14.6466 C   0  0  0  0  0
  -52.4436    0.2559  -15.6229 C   0  0  0  0  0
  -53.6866    2.3925  -15.2984 C   0  0  0  0  0
  -51.8017    3.8502  -14.5371 C   0  0  0  0  0
  -50.8392    4.6232  -15.1673 C   0  0  0  0  0
  -52.0538    3.7183  -16.6699 C   0  0  0  0  0
  -52.5768    3.3121  -18.0067 C   0  0  0  0  0
  -52.3470    1.3759  -19.6051 C   0  0  0  0  0
  -51.6835    0.0928  -19.9853 C   0  0  0  0  0
  -51.9899   -0.9974  -18.9503 C   0  0  0  0  0
  -50.6548   -1.3676  -18.4423 C   0  0  0  0  0
  -50.1543    0.2762  -20.0377 C   0  0  0  0  0
  -49.6288   -0.0270  -21.4084 C   0  0  0  0  0
  -49.7706   -1.3027  -21.9740 C   0  0  0  0  0
  -49.2824   -1.5613  -23.2583 C   0  0  0  0  0
  -48.6460   -0.5429  -23.9818 C   0  0  0  0  0
  -48.4955    0.7256  -23.4133 C   0  0  0  0  0
  -48.9873    0.9840  -22.1309 C   0  0  0  0  0
  -48.1882   -0.6967  -18.7022 C   0  0  0  0  0
  -47.9765   -0.3208  -17.2448 C   0  0  0  0  0
  -47.6233   -2.0780  -18.9769 C   0  0  0  0  0
  -52.5483    3.2807  -15.4985 N   0  0  0  0  0
  -50.9970    4.5350  -16.5074 N   0  0  0  0  0
  -51.9634    2.0580  -18.4085 N   0  0  0  0  0
  -49.6064   -0.6394  -19.0542 N   0  0  0  0  0
  -53.2601    1.8380  -20.3380 O   0  0  0  0  0
  -50.4641   -2.2364  -17.5500 O   0  0  0  0  0
  -48.0377   -0.8401  -25.6001 Cl  0  0  0  0  0
  -49.4375   -2.7969  -23.7971 F   0  0  0  0  0
  1  2  1  0  0  0
  2  3  1  0  0  0
  2  4  1  0  0  0
  4 23  1  0  0  0
  6 24  1  0  0  0
  7 23  1  0  0  0
  8  7  1  0  0  0
  8 25  1  0  0  0
 10  9  1  0  0  0
 10 11  1  0  0  0
 11 12  1  0  0  0
 12 26  1  0  0  0
 13 26  1  0  0  0
 13 14  1  0  0  0
 13 10  1  0  0  0
 15 16  1  0  0  0
 16 30  1  0  0  0
 17 18  1  0  0  0
 17 29  1  0  0  0
 19 14  1  0  0  0
 20 26  1  0  0  0
 20 21  1  0  0  0
 20 22  1  0  0  0
 23  5  1  0  0  0
 25  9  1  0  0  0
  5  6  2  0  0  0
  7 24  2  0  0  0
  9 27  2  0  0  0
 12 28  2  0  0  0
 14 15  2  0  0  0
 16 17  2  0  0  0
 18 19  2  0  0  0
M  END
> <rmsd>
0.4921574

$$$$
ZINC000095989116 PubChem-97337050


 30 32  0  0  0  0  0  0  0  0999 V2000
  -48.8735    5.5238  -17.6369 C   0  0  0  0  0
  -49.4720    4.2429  -18.1826 C   0  0  0  0  0
  -48.5610    3.6863  -19.2540 C   0  0  0  0  0
  -49.6190    3.2192  -17.0688 C   0  0  0  0  0
  -50.7049    3.8345  -14.9137 C   0  0  0  0  0
  -52.0055    4.0126  -14.4708 C   0  0  0  0  0
  -52.0691    3.5168  -16.5453 C   0  0  0  0  0
  -52.6027    3.2084  -17.9058 C   0  0  0  0  0
  -52.3900    1.3650  -19.6192 C   0  0  0  0  0
  -51.7409    0.0870  -20.0360 C   0  0  0  0  0
  -51.9765   -1.0026  -18.9800 C   0  0  0  0  0
  -50.6195   -1.2821  -18.4704 C   0  0  0  0  0
  -50.2203    0.3064  -20.1475 C   0  0  0  0  0
  -49.7219   -0.0554  -21.5134 C   0  0  0  0  0
  -49.1316    0.9350  -22.3051 C   0  0  0  0  0
  -48.6506    0.6241  -23.5811 C   0  0  0  0  0
  -48.7591   -0.6849  -24.0701 C   0  0  0  0  0
  -49.3482   -1.6772  -23.2804 C   0  0  0  0  0
  -49.8300   -1.3654  -22.0058 C   0  0  0  0  0
  -48.1945   -0.4947  -18.7912 C   0  0  0  0  0
  -47.5619   -1.8603  -18.9763 C   0  0  0  0  0
  -47.9958   -0.0120  -17.3681 C   0  0  0  0  0
  -50.7631    3.5330  -16.2209 N   0  0  0  0  0
  -52.8603    3.8113  -15.4982 N   0  0  0  0  0
  -52.1545    1.8876  -18.3120 N   0  0  0  0  0
  -49.6145   -0.5343  -19.1310 N   0  0  0  0  0
  -53.0909    2.0058  -20.4466 O   0  0  0  0  0
  -50.3783   -2.0836  -17.5298 O   0  0  0  0  0
  -48.1622   -1.0964  -25.6665 Cl  0  0  0  0  0
  -48.0806    1.5950  -24.3353 F   0  0  0  0  0
  1  2  1  0  0  0
  2  3  1  0  0  0
  2  4  1  0  0  0
  4 23  1  0  0  0
  6 24  1  0  0  0
  7 23  1  0  0  0
  8  7  1  0  0  0
  8 25  1  0  0  0
 10  9  1  0  0  0
 10 11  1  0  0  0
 11 12  1  0  0  0
 12 26  1  0  0  0
 13 26  1  0  0  0
 13 14  1  0  0  0
 13 10  1  0  0  0
 15 16  1  0  0  0
 16 30  1  0  0  0
 17 18  1  0  0  0
 17 29  1  0  0  0
 19 14  1  0  0  0
 20 26  1  0  0  0
 20 21  1  0  0  0
 20 22  1  0  0  0
 23  5  1  0  0  0
 25  9  1  0  0  0
  5  6  2  0  0  0
  7 24  2  0  0  0
  9 27  2  0  0  0
 12 28  2  0  0  0
 14 15  2  0  0  0
 16 17  2  0  0  0
 18 19  2  0  0  0
M  END
> <rmsd>
0.482247829

$$$$
ZINC000020530876 ZINC20530876 PubChem-92688294


 32 34  0  0  0  0  0  0  0  0999 V2000
  -55.0985    8.6653  -17.7303 C   0  0  0  0  0
  -54.0774    6.4145  -17.5852 C   0  0  0  0  0
  -54.3468    6.1415  -18.9357 C   0  0  0  0  0
  -53.9640    4.9242  -19.5021 C   0  0  0  0  0
  -53.3054    3.9605  -18.7290 C   0  0  0  0  0
  -53.0357    4.2327  -17.3819 C   0  0  0  0  0
  -53.4163    5.4543  -16.8036 C   0  0  0  0  0
  -52.4919    4.8136  -14.5985 C   0  0  0  0  0
  -52.8889    2.6798  -19.3260 C   0  0  0  0  0
  -51.6553    0.4682  -18.9877 C   0  0  0  0  0
  -51.1932   -1.1161  -20.7896 C   0  0  0  0  0
  -51.0770   -2.2508  -19.7615 C   0  0  0  0  0
  -50.6582   -1.7258  -18.4252 C   0  0  0  0  0
  -49.8833   -0.8180  -21.4696 C   0  0  0  0  0
  -48.8300   -0.3356  -20.6852 C   0  0  0  0  0
  -47.5845   -0.0807  -21.2419 C   0  0  0  0  0
  -47.3578   -0.3079  -22.6014 C   0  0  0  0  0
  -48.3944   -0.7871  -23.4184 C   0  0  0  0  0
  -49.6826   -1.0301  -22.8627 C   0  0  0  0  0
  -52.0984   -1.4077  -23.4549 C   0  0  0  0  0
  -48.9771   -1.4874  -25.7609 C   0  0  0  0  0
  -44.9901    0.3966  -22.4112 C   0  0  0  0  0
  -54.4526    7.6300  -17.0023 O   0  0  0  0  0
  -53.1480    5.7342  -15.4593 O   0  0  0  0  0
  -53.1543    2.4368  -20.5348 O   0  0  0  0  0
  -50.0351   -2.4663  -17.6216 O   0  0  0  0  0
  -50.7041   -1.4854  -23.7156 O   0  0  0  0  0
  -48.0828   -0.9952  -24.7742 O   0  0  0  0  0
  -46.1006   -0.0664  -23.1681 O   0  0  0  0  0
  -52.1824    1.7182  -18.5282 N   0  0  0  0  0
  -51.7871    0.1045  -20.2308 N   0  0  0  0  0
  -50.9915   -0.3886  -18.0562 N   0  0  0  0  0
  1 23  1  0  0  0
  2 23  1  0  0  0
  3  4  1  0  0  0
  5  6  1  0  0  0
  5  9  1  0  0  0
  7 24  1  0  0  0
  7  2  1  0  0  0
  8 24  1  0  0  0
  9 30  1  0  0  0
 11 31  1  0  0  0
 11 12  1  0  0  0
 11 14  1  0  0  0
 12 13  1  0  0  0
 13 32  1  0  0  0
 15 16  1  0  0  0
 17 18  1  0  0  0
 17 29  1  0  0  0
 18 28  1  0  0  0
 19 27  1  0  0  0
 19 14  1  0  0  0
 20 27  1  0  0  0
 21 28  1  0  0  0
 22 29  1  0  0  0
 30 10  1  0  0  0
 32 10  1  0  0  0
  2  3  2  0  0  0
  4  5  2  0  0  0
  6  7  2  0  0  0
  9 25  2  0  0  0
 10 31  2  0  0  0
 13 26  2  0  0  0
 14 15  2  0  0  0
 16 17  2  0  0  0
 18 19  2  0  0  0
M  END
> <rmsd>
0.679802537

$$$$
ZINC000096181850 ZINC96181850 PubChem-97457680


 25 27  0  0  0  0  0  0  0  0999 V2000
  -51.8531    4.3662  -14.2962 C   0  0  0  0  0
  -52.5016    4.0820  -15.6035 C   0  0  0  0  0
  -53.6509    4.7796  -15.9814 C   0  0  0  0  0
  -54.2444    4.4981  -17.2139 C   0  0  0  0  0
  -52.5785    2.8637  -17.6836 C   0  0  0  0  0
  -51.9615    3.1164  -16.4552 C   0  0  0  0  0
  -52.4917    1.5389  -19.8613 C   0  0  0  0  0
  -51.8801    0.4016  -20.6200 C   0  0  0  0  0
  -52.5384   -0.9342  -20.2751 C   0  0  0  0  0
  -52.2119   -1.3668  -18.8533 C   0  0  0  0  0
  -50.7372   -1.3377  -18.6110 C   0  0  0  0  0
  -50.3496    0.3494  -20.4724 C   0  0  0  0  0
  -49.6974   -0.2125  -21.7002 C   0  0  0  0  0
  -49.9140   -1.5402  -22.0986 C   0  0  0  0  0
  -49.2946   -2.0393  -23.2472 C   0  0  0  0  0
  -48.4493   -1.2178  -23.9962 C   0  0  0  0  0
  -48.2168    0.1008  -23.5924 C   0  0  0  0  0
  -48.8396    0.6018  -22.4469 C   0  0  0  0  0
  -48.5541   -0.1303  -18.7868 C   0  0  0  0  0
  -53.7026    3.5543  -18.0307 N   0  0  0  0  0
  -52.0262    1.8629  -18.5451 N   0  0  0  0  0
  -49.9086   -0.3616  -19.2653 N   0  0  0  0  0
  -53.4373    2.1834  -20.3880 O   0  0  0  0  0
  -50.2364   -2.1544  -17.7918 O   0  0  0  0  0
  -47.8516   -1.7016  -25.1094 F   0  0  0  0  0
  1  2  1  0  0  0
  3  4  1  0  0  0
  5 20  1  0  0  0
  5 21  1  0  0  0
  6  2  1  0  0  0
  8  7  1  0  0  0
  8  9  1  0  0  0
  9 10  1  0  0  0
 10 11  1  0  0  0
 11 22  1  0  0  0
 12 22  1  0  0  0
 12 13  1  0  0  0
 12  8  1  0  0  0
 14 15  1  0  0  0
 16 17  1  0  0  0
 16 25  1  0  0  0
 18 13  1  0  0  0
 19 22  1  0  0  0
 21  7  1  0  0  0
  2  3  2  0  0  0
  4 20  2  0  0  0
  5  6  2  0  0  0
  7 23  2  0  0  0
 11 24  2  0  0  0
 13 14  2  0  0  0
 15 16  2  0  0  0
 17 18  2  0  0  0
M  END
> <rmsd>
0.472841978

$$$$
ZINC000020924363 ZINC20924363 PubChem-92705276


 27 29  0  0  0  0  0  0  0  0999 V2000
  -47.6104   -0.9763  -24.5455 C   0  0  0  0  0
  -48.7111   -1.0678  -23.5515 C   0  0  0  0  0
  -49.9245   -1.6653  -23.9053 C   0  0  0  0  0
  -50.9607   -1.7517  -22.9706 C   0  0  0  0  0
  -50.7893   -1.2398  -21.6797 C   0  0  0  0  0
  -49.5684   -0.6438  -21.3276 C   0  0  0  0  0
  -48.5327   -0.5578  -22.2624 C   0  0  0  0  0
  -51.9139   -1.3538  -20.6951 C   0  0  0  0  0
  -51.6118   -2.3933  -19.6061 C   0  0  0  0  0
  -50.8291   -1.7849  -18.4876 C   0  0  0  0  0
  -51.8244    0.4184  -19.0115 C   0  0  0  0  0
  -52.9633    2.6900  -19.2809 C   0  0  0  0  0
  -53.2282    4.0129  -18.6886 C   0  0  0  0  0
  -54.0084    4.9537  -19.3723 C   0  0  0  0  0
  -54.2577    6.2064  -18.8086 C   0  0  0  0  0
  -53.7300    6.5389  -17.5505 C   0  0  0  0  0
  -52.9473    5.6022  -16.8587 C   0  0  0  0  0
  -52.7019    4.3444  -17.4337 C   0  0  0  0  0
  -51.6233    5.0500  -14.8409 C   0  0  0  0  0
  -54.7513    8.7939  -17.6046 C   0  0  0  0  0
  -50.0436   -2.4919  -17.8056 O   0  0  0  0  0
  -53.4415    2.4032  -20.4124 O   0  0  0  0  0
  -52.4248    5.9402  -15.6057 O   0  0  0  0  0
  -53.9702    7.7897  -16.9713 O   0  0  0  0  0
  -50.9992   -0.4025  -18.1814 N   0  0  0  0  0
  -52.2697   -0.0385  -20.1472 N   0  0  0  0  0
  -52.1608    1.7380  -18.5671 N   0  0  0  0  0
  1  2  1  0  0  0
  3  4  1  0  0  0
  5  6  1  0  0  0
  7  2  1  0  0  0
  8  5  1  0  0  0
  8  9  1  0  0  0
  8 26  1  0  0  0
  9 10  1  0  0  0
 10 25  1  0  0  0
 11 27  1  0  0  0
 12 13  1  0  0  0
 14 15  1  0  0  0
 16 17  1  0  0  0
 16 24  1  0  0  0
 17 23  1  0  0  0
 18 13  1  0  0  0
 19 23  1  0  0  0
 20 24  1  0  0  0
 25 11  1  0  0  0
 27 12  1  0  0  0
  2  3  2  0  0  0
  4  5  2  0  0  0
  6  7  2  0  0  0
 10 21  2  0  0  0
 11 26  2  0  0  0
 12 22  2  0  0  0
 13 14  2  0  0  0
 15 16  2  0  0  0
 17 18  2  0  0  0
M  END
> <rmsd>
0.662043869

$$$$
ZINC000020924363 ZINC20924363 PubChem-92705276


 27 29  0  0  0  0  0  0  0  0999 V2000
  -47.6109   -0.9777  -24.5431 C   0  0  0  0  0
  -48.7116   -1.0686  -23.5490 C   0  0  0  0  0
  -48.5333   -0.5570  -22.2605 C   0  0  0  0  0
  -49.5689   -0.6424  -21.3256 C   0  0  0  0  0
  -50.7896   -1.2393  -21.6770 C   0  0  0  0  0
  -50.9609   -1.7525  -22.9673 C   0  0  0  0  0
  -49.9247   -1.6668  -23.9022 C   0  0  0  0  0
  -51.9143   -1.3525  -20.6924 C   0  0  0  0  0
  -51.6119   -2.3906  -19.6021 C   0  0  0  0  0
  -50.8295   -1.7807  -18.4844 C   0  0  0  0  0
  -51.8255    0.4216  -19.0108 C   0  0  0  0  0
  -52.9651    2.6926  -19.2827 C   0  0  0  0  0
  -53.2305    4.0161  -18.6918 C   0  0  0  0  0
  -54.0098    4.9549  -19.3749 C   0  0  0  0  0
  -54.2588    6.2071  -18.8123 C   0  0  0  0  0
  -53.7380    6.5502  -17.5599 C   0  0  0  0  0
  -52.9467    5.6063  -16.8585 C   0  0  0  0  0
  -52.7050    4.3492  -17.4388 C   0  0  0  0  0
  -51.6101    5.0070  -14.8580 C   0  0  0  0  0
  -53.6000    8.3504  -15.8262 C   0  0  0  0  0
  -50.0437   -2.4867  -17.8015 O   0  0  0  0  0
  -53.4433    2.4043  -20.4139 O   0  0  0  0  0
  -52.4097    5.9157  -15.6036 O   0  0  0  0  0
  -54.0401    7.8308  -17.0728 O   0  0  0  0  0
  -51.0000   -0.3980  -18.1797 N   0  0  0  0  0
  -52.2706   -0.0367  -20.1460 N   0  0  0  0  0
  -52.1623    1.7417  -18.5678 N   0  0  0  0  0
  1  2  1  0  0  0
  3  4  1  0  0  0
  5  6  1  0  0  0
  7  2  1  0  0  0
  8  5  1  0  0  0
  8  9  1  0  0  0
  8 26  1  0  0  0
  9 10  1  0  0  0
 10 25  1  0  0  0
 11 27  1  0  0  0
 12 13  1  0  0  0
 14 15  1  0  0  0
 16 17  1  0  0  0
 16 24  1  0  0  0
 17 23  1  0  0  0
 18 13  1  0  0  0
 19 23  1  0  0  0
 20 24  1  0  0  0
 25 11  1  0  0  0
 27 12  1  0  0  0
  2  3  2  0  0  0
  4  5  2  0  0  0
  6  7  2  0  0  0
 10 21  2  0  0  0
 11 26  2  0  0  0
 12 22  2  0  0  0
 13 14  2  0  0  0
 15 16  2  0  0  0
 17 18  2  0  0  0
M  END
> <rmsd>
0.654965639

$$$$
ZINC000096181797 ZINC96181797 PubChem-97457627


 24 26  0  0  0  0  0  0  0  0999 V2000
  -52.5416    4.9798  -14.7368 C   0  0  0  0  0
  -52.6315    4.2341  -16.0196 C   0  0  0  0  0
  -51.8434    3.1567  -16.3759 C   0  0  0  0  0
  -52.3395    2.8637  -17.6319 C   0  0  0  0  0
  -52.3535    1.4784  -19.7612 C   0  0  0  0  0
  -51.7715    0.3261  -20.5289 C   0  0  0  0  0
  -50.2339    0.2457  -20.4551 C   0  0  0  0  0
  -50.7052   -1.4515  -18.6578 C   0  0  0  0  0
  -52.1677   -1.2936  -18.9196 C   0  0  0  0  0
  -48.3752   -0.5847  -18.9693 C   0  0  0  0  0
  -49.6687   -0.2229  -21.7619 C   0  0  0  0  0
  -48.8451    0.6368  -22.4968 C   0  0  0  0  0
  -48.3007    0.2184  -23.7146 C   0  0  0  0  0
  -48.5771   -1.0627  -24.2011 C   0  0  0  0  0
  -49.3972   -1.9267  -23.4697 C   0  0  0  0  0
  -49.9420   -1.5092  -22.2521 C   0  0  0  0  0
  -53.3346    3.7021  -17.9779 N   0  0  0  0  0
  -51.8531    1.8018  -18.4577 N   0  0  0  0  0
  -49.7785   -0.6103  -19.3550 N   0  0  0  0  0
  -53.4816    4.5159  -16.9772 O   0  0  0  0  0
  -53.3038    2.1317  -20.2675 O   0  0  0  0  0
  -50.3079   -2.2714  -17.7879 O   0  0  0  0  0
  -52.4056   -0.9127  -20.2582 O   0  0  0  0  0
  -48.0492   -1.4672  -25.3810 F   0  0  0  0  0
  1  2  1  0  0  0
  2 20  1  0  0  0
  3  4  1  0  0  0
  4 18  1  0  0  0
  6  5  1  0  0  0
  6  7  1  0  0  0
  6 23  1  0  0  0
  7 19  1  0  0  0
  7 11  1  0  0  0
  9  8  1  0  0  0
  9 23  1  0  0  0
 10 19  1  0  0  0
 12 13  1  0  0  0
 14 15  1  0  0  0
 14 24  1  0  0  0
 16 11  1  0  0  0
 17 20  1  0  0  0
 18  5  1  0  0  0
 19  8  1  0  0  0
  2  3  2  0  0  0
  4 17  2  0  0  0
  5 21  2  0  0  0
  8 22  2  0  0  0
 11 12  2  0  0  0
 13 14  2  0  0  0
 15 16  2  0  0  0
M  END
> <rmsd>
0.465272367

$$$$
ZINC000032674352 ZINC32674352 PubChem-39910230


 30 33  0  0  0  0  0  0  0  0999 V2000
  -47.9314   -1.4988  -25.4605 C   0  0  0  0  0
  -48.3530   -0.6140  -23.1879 C   0  0  0  0  0
  -49.7351   -0.8451  -23.2799 C   0  0  0  0  0
  -50.5796   -0.4986  -22.2214 C   0  0  0  0  0
  -50.0557    0.0839  -21.0627 C   0  0  0  0  0
  -48.6744    0.3143  -20.9706 C   0  0  0  0  0
  -47.8299   -0.0343  -22.0279 C   0  0  0  0  0
  -50.9957    0.4426  -19.9369 C   0  0  0  0  0
  -50.8364    1.8943  -19.4869 C   0  0  0  0  0
  -53.2796    2.4032  -19.0375 C   0  0  0  0  0
  -54.3688    2.6868  -18.0521 C   0  0  0  0  0
  -54.3335    4.1506  -17.5908 C   0  0  0  0  0
  -53.2949    4.3878  -16.5303 C   0  0  0  0  0
  -52.7255    5.6578  -16.3977 C   0  0  0  0  0
  -51.7872    5.9050  -15.3914 C   0  0  0  0  0
  -51.4196    4.8843  -14.5097 C   0  0  0  0  0
  -51.9871    3.6125  -14.6347 C   0  0  0  0  0
  -52.9241    3.3593  -15.6451 C   0  0  0  0  0
  -53.5218    2.0273  -15.8214 C   0  0  0  0  0
  -51.4651   -1.8006  -19.2280 C   0  0  0  0  0
  -51.3699   -2.7897  -18.0644 C   0  0  0  0  0
  -49.6500   -1.6720  -17.1121 C   0  0  0  0  0
  -49.6333   -0.6127  -18.2148 C   0  0  0  0  0
  -47.4832   -0.9444  -24.2309 O   0  0  0  0  0
  -53.5654    2.3055  -20.2615 O   0  0  0  0  0
  -53.3443    1.1198  -14.9661 O   0  0  0  0  0
  -54.3096    1.7756  -16.9494 O   0  0  0  0  0
  -50.0303   -2.9139  -17.6527 O   0  0  0  0  0
  -51.9244    2.2718  -18.5962 N   0  0  0  0  0
  -50.9768   -0.4879  -18.7947 N   0  0  0  0  0
  1 24  1  0  0  0
  2 24  1  0  0  0
  3  4  1  0  0  0
  5  6  1  0  0  0
  7  2  1  0  0  0
  8  5  1  0  0  0
  8  9  1  0  0  0
  8 30  1  0  0  0
  9 29  1  0  0  0
 11 10  1  0  0  0
 11 12  1  0  0  0
 11 27  1  0  0  0
 12 13  1  0  0  0
 14 15  1  0  0  0
 16 17  1  0  0  0
 18 19  1  0  0  0
 18 13  1  0  0  0
 19 27  1  0  0  0
 20 30  1  0  0  0
 20 21  1  0  0  0
 21 28  1  0  0  0
 22 28  1  0  0  0
 22 23  1  0  0  0
 23 30  1  0  0  0
 29 10  1  0  0  0
  2  3  2  0  0  0
  4  5  2  0  0  0
  6  7  2  0  0  0
 10 25  2  0  0  0
 13 14  2  0  0  0
 15 16  2  0  0  0
 17 18  2  0  0  0
 19 26  2  0  0  0
M  END
> <rmsd>
0.507870793

$$$$
ZINC000020924353 ZINC20924353 PubChem-92705274


 29 31  0  0  0  0  0  0  0  0999 V2000
  -47.6116   -0.9770  -24.5432 C   0  0  0  0  0
  -48.7121   -1.0680  -23.5489 C   0  0  0  0  0
  -48.5336   -0.5564  -22.2604 C   0  0  0  0  0
  -49.5690   -0.6419  -21.3253 C   0  0  0  0  0
  -50.7898   -1.2387  -21.6765 C   0  0  0  0  0
  -50.9612   -1.7519  -22.9669 C   0  0  0  0  0
  -49.9252   -1.6662  -23.9019 C   0  0  0  0  0
  -51.9142   -1.3519  -20.6916 C   0  0  0  0  0
  -51.6114   -2.3901  -19.6015 C   0  0  0  0  0
  -50.8290   -1.7802  -18.4838 C   0  0  0  0  0
  -51.8251    0.4222  -19.0101 C   0  0  0  0  0
  -52.9643    2.6932  -19.2822 C   0  0  0  0  0
  -53.2296    4.0167  -18.6916 C   0  0  0  0  0
  -54.0075    4.9547  -19.3741 C   0  0  0  0  0
  -54.2649    6.2166  -18.8196 C   0  0  0  0  0
  -53.7382    6.5531  -17.5608 C   0  0  0  0  0
  -52.9472    5.6061  -16.8614 C   0  0  0  0  0
  -52.7057    4.3502  -17.4405 C   0  0  0  0  0
  -51.6100    5.0020  -14.8618 C   0  0  0  0  0
  -53.5876    8.3434  -15.8118 C   0  0  0  0  0
  -55.6162    6.9014  -20.7798 C   0  0  0  0  0
  -50.0432   -2.4861  -17.8010 O   0  0  0  0  0
  -53.4425    2.4050  -20.4134 O   0  0  0  0  0
  -52.4090    5.9125  -15.6060 O   0  0  0  0  0
  -54.0325    7.8329  -17.0605 O   0  0  0  0  0
  -55.0446    7.1564  -19.5037 O   0  0  0  0  0
  -50.9995   -0.3975  -18.1791 N   0  0  0  0  0
  -52.2703   -0.0361  -20.1452 N   0  0  0  0  0
  -52.1618    1.7422  -18.5672 N   0  0  0  0  0
  1  2  1  0  0  0
  3  4  1  0  0  0
  5  6  1  0  0  0
  7  2  1  0  0  0
  8  5  1  0  0  0
  8  9  1  0  0  0
  8 28  1  0  0  0
  9 10  1  0  0  0
 10 27  1  0  0  0
 11 29  1  0  0  0
 12 13  1  0  0  0
 14 15  1  0  0  0
 15 26  1  0  0  0
 16 17  1  0  0  0
 16 25  1  0  0  0
 17 24  1  0  0  0
 18 13  1  0  0  0
 19 24  1  0  0  0
 20 25  1  0  0  0
 21 26  1  0  0  0
 27 11  1  0  0  0
 29 12  1  0  0  0
  2  3  2  0  0  0
  4  5  2  0  0  0
  6  7  2  0  0  0
 10 22  2  0  0  0
 11 28  2  0  0  0
 12 23  2  0  0  0
 13 14  2  0  0  0
 15 16  2  0  0  0
 17 18  2  0  0  0
M  END
> <rmsd>
0.653930366

$$$$
ZINC000020924353 ZINC20924353 PubChem-92705274


 29 31  0  0  0  0  0  0  0  0999 V2000
  -47.6114   -0.9768  -24.5431 C   0  0  0  0  0
  -48.7119   -1.0678  -23.5488 C   0  0  0  0  0
  -48.5335   -0.5563  -22.2602 C   0  0  0  0  0
  -49.5689   -0.6418  -21.3252 C   0  0  0  0  0
  -50.7896   -1.2386  -21.6765 C   0  0  0  0  0
  -50.9611   -1.7519  -22.9669 C   0  0  0  0  0
  -49.9250   -1.6660  -23.9019 C   0  0  0  0  0
  -51.9141   -1.3520  -20.6917 C   0  0  0  0  0
  -51.6115   -2.3901  -19.6015 C   0  0  0  0  0
  -50.8291   -1.7802  -18.4838 C   0  0  0  0  0
  -51.8252    0.4221  -19.0101 C   0  0  0  0  0
  -52.9644    2.6932  -19.2823 C   0  0  0  0  0
  -53.2298    4.0166  -18.6916 C   0  0  0  0  0
  -52.7059    4.3501  -17.4404 C   0  0  0  0  0
  -52.9475    5.6060  -16.8613 C   0  0  0  0  0
  -53.7385    6.5529  -17.5608 C   0  0  0  0  0
  -54.2652    6.2165  -18.8195 C   0  0  0  0  0
  -54.0077    4.9546  -19.3741 C   0  0  0  0  0
  -55.6164    6.9012  -20.7798 C   0  0  0  0  0
  -53.5880    8.3432  -15.8118 C   0  0  0  0  0
  -51.6103    5.0020  -14.8618 C   0  0  0  0  0
  -50.0432   -2.4861  -17.8010 O   0  0  0  0  0
  -53.4426    2.4049  -20.4134 O   0  0  0  0  0
  -55.0448    7.1563  -19.5037 O   0  0  0  0  0
  -54.0327    7.8327  -17.0604 O   0  0  0  0  0
  -52.4093    5.9123  -15.6060 O   0  0  0  0  0
  -50.9996   -0.3975  -18.1791 N   0  0  0  0  0
  -52.2704   -0.0362  -20.1453 N   0  0  0  0  0
  -52.1619    1.7422  -18.5672 N   0  0  0  0  0
  1  2  1  0  0  0
  3  4  1  0  0  0
  5  6  1  0  0  0
  7  2  1  0  0  0
  8  5  1  0  0  0
  8  9  1  0  0  0
  8 28  1  0  0  0
  9 10  1  0  0  0
 10 27  1  0  0  0
 11 29  1  0  0  0
 12 13  1  0  0  0
 14 15  1  0  0  0
 15 26  1  0  0  0
 16 17  1  0  0  0
 16 25  1  0  0  0
 17 24  1  0  0  0
 18 13  1  0  0  0
 19 24  1  0  0  0
 20 25  1  0  0  0
 21 26  1  0  0  0
 27 11  1  0  0  0
 29 12  1  0  0  0
  2  3  2  0  0  0
  4  5  2  0  0  0
  6  7  2  0  0  0
 10 22  2  0  0  0
 11 28  2  0  0  0
 12 23  2  0  0  0
 13 14  2  0  0  0
 15 16  2  0  0  0
 17 18  2  0  0  0
M  END
> <rmsd>
0.654072046

$$$$
ZINC000020924353 ZINC20924353 PubChem-92705274


 29 31  0  0  0  0  0  0  0  0999 V2000
  -47.6113   -0.9769  -24.5431 C   0  0  0  0  0
  -48.7119   -1.0678  -23.5488 C   0  0  0  0  0
  -49.9250   -1.6660  -23.9019 C   0  0  0  0  0
  -50.9610   -1.7519  -22.9669 C   0  0  0  0  0
  -50.7896   -1.2386  -21.6764 C   0  0  0  0  0
  -49.5688   -0.6418  -21.3252 C   0  0  0  0  0
  -48.5334   -0.5563  -22.2604 C   0  0  0  0  0
  -51.9141   -1.3519  -20.6917 C   0  0  0  0  0
  -51.6114   -2.3900  -19.6015 C   0  0  0  0  0
  -50.8290   -1.7801  -18.4838 C   0  0  0  0  0
  -51.8250    0.4222  -19.0101 C   0  0  0  0  0
  -52.9643    2.6933  -19.2823 C   0  0  0  0  0
  -53.2296    4.0168  -18.6915 C   0  0  0  0  0
  -54.0075    4.9547  -19.3741 C   0  0  0  0  0
  -54.2649    6.2167  -18.8196 C   0  0  0  0  0
  -53.7382    6.5531  -17.5608 C   0  0  0  0  0
  -52.9473    5.6061  -16.8613 C   0  0  0  0  0
  -52.7058    4.3502  -17.4404 C   0  0  0  0  0
  -51.6102    5.0020  -14.8617 C   0  0  0  0  0
  -53.5878    8.3433  -15.8118 C   0  0  0  0  0
  -55.6162    6.9013  -20.7798 C   0  0  0  0  0
  -50.0431   -2.4861  -17.8010 O   0  0  0  0  0
  -53.4424    2.4050  -20.4134 O   0  0  0  0  0
  -52.4092    5.9123  -15.6059 O   0  0  0  0  0
  -54.0325    7.8329  -17.0604 O   0  0  0  0  0
  -55.0445    7.1564  -19.5038 O   0  0  0  0  0
  -50.9994   -0.3975  -18.1791 N   0  0  0  0  0
  -52.2703   -0.0361  -20.1452 N   0  0  0  0  0
  -52.1617    1.7422  -18.5671 N   0  0  0  0  0
  1  2  1  0  0  0
  3  4  1  0  0  0
  5  6  1  0  0  0
  7  2  1  0  0  0
  8  5  1  0  0  0
  8  9  1  0  0  0
  8 28  1  0  0  0
  9 10  1  0  0  0
 10 27  1  0  0  0
 11 29  1  0  0  0
 12 13  1  0  0  0
 14 15  1  0  0  0
 15 26  1  0  0  0
 16 17  1  0  0  0
 16 25  1  0  0  0
 17 24  1  0  0  0
 18 13  1  0  0  0
 19 24  1  0  0  0
 20 25  1  0  0  0
 21 26  1  0  0  0
 27 11  1  0  0  0
 29 12  1  0  0  0
  2  3  2  0  0  0
  4  5  2  0  0  0
  6  7  2  0  0  0
 10 22  2  0  0  0
 11 28  2  0  0  0
 12 23  2  0  0  0
 13 14  2  0  0  0
 15 16  2  0  0  0
 17 18  2  0  0  0
M  END
> <rmsd>
0.654152751

$$$$
ZINC000299749536 PubChem-125151685


 28 30  0  0  0  0  0  0  0  0999 V2000
  -48.0517   -1.3992  -25.9835 C   0  0  0  0  0
  -48.5475   -0.0885  -23.9453 C   0  0  0  0  0
  -49.1318   -1.1895  -23.2981 C   0  0  0  0  0
  -49.6423   -1.0561  -22.0043 C   0  0  0  0  0
  -49.5720    0.1794  -21.3436 C   0  0  0  0  0
  -50.1186    0.3525  -19.9593 C   0  0  0  0  0
  -51.6433    0.1337  -19.9399 C   0  0  0  0  0
  -52.3502    1.3991  -19.5830 C   0  0  0  0  0
  -52.7456    3.2793  -17.9491 C   0  0  0  0  0
  -52.2600    3.7092  -16.6103 C   0  0  0  0  0
  -52.9075    3.2623  -15.4544 C   0  0  0  0  0
  -52.4356    3.6456  -14.1956 C   0  0  0  0  0
  -51.3094    4.4744  -14.0836 C   0  0  0  0  0
  -50.8090    4.8809  -12.7608 C   0  0  0  0  0
  -50.6600    4.9117  -15.2463 C   0  0  0  0  0
  -51.1317    4.5284  -16.5053 C   0  0  0  0  0
  -51.9450   -0.9651  -18.9118 C   0  0  0  0  0
  -50.6046   -1.3589  -18.4359 C   0  0  0  0  0
  -48.1822   -0.6308  -18.5941 C   0  0  0  0  0
  -48.9930    1.2762  -21.9890 C   0  0  0  0  0
  -48.4824    1.1421  -23.2834 C   0  0  0  0  0
  -48.0275   -0.1892  -25.2386 O   0  0  0  0  0
  -53.1779    1.8935  -20.3938 O   0  0  0  0  0
  -51.3870    4.4906  -11.7116 O   0  0  0  0  0
  -49.6915    5.7011  -12.6565 O   0  0  0  0  0
  -50.4054   -2.2420  -17.5607 O   0  0  0  0  0
  -52.0853    2.0431  -18.3349 N   0  0  0  0  0
  -49.5627   -0.6313  -19.0494 N   0  0  0  0  0
  1 22  1  0  0  0
  2 22  1  0  0  0
  3  4  1  0  0  0
  5 20  1  0  0  0
  6  5  1  0  0  0
  6  7  1  0  0  0
  6 28  1  0  0  0
  7  8  1  0  0  0
  7 17  1  0  0  0
  8 27  1  0  0  0
  9 27  1  0  0  0
  9 10  1  0  0  0
 11 12  1  0  0  0
 13 14  1  0  0  0
 13 15  1  0  0  0
 14 25  1  0  0  0
 16 10  1  0  0  0
 17 18  1  0  0  0
 18 28  1  0  0  0
 19 28  1  0  0  0
 21  2  1  0  0  0
  2  3  2  0  0  0
  4  5  2  0  0  0
  8 23  2  0  0  0
 10 11  2  0  0  0
 12 13  2  0  0  0
 14 24  2  0  0  0
 15 16  2  0  0  0
 18 26  2  0  0  0
 20 21  2  0  0  0
M  END
> <rmsd>
0.500713587

$$$$
ZINC000408606915 PubChem-125618295


 29 31  0  0  0  0  0  0  0  0999 V2000
  -52.1088    4.2447  -15.4689 C   0  0  0  0  0
  -51.7678    3.2811  -16.3180 C   0  0  0  0  0
  -52.5308    3.1001  -17.5837 C   0  0  0  0  0
  -52.4990    1.5808  -19.5948 C   0  0  0  0  0
  -51.8928    0.4526  -20.3101 C   0  0  0  0  0
  -49.3881   -2.2616  -19.8889 C   0  0  0  0  0
  -49.5826   -2.7369  -18.5072 C   0  0  0  0  0
  -48.9448   -4.5045  -16.7593 C   0  0  0  0  0
  -48.1820   -5.6503  -16.5068 C   0  0  0  0  0
  -48.2199   -6.2634  -15.2509 C   0  0  0  0  0
  -49.0230   -5.7323  -14.2381 C   0  0  0  0  0
  -49.7879   -4.5885  -14.4809 C   0  0  0  0  0
  -49.7490   -3.9766  -15.7371 C   0  0  0  0  0
  -48.5606   -2.8935  -20.8220 C   0  0  0  0  0
  -48.6671   -2.1018  -21.9504 C   0  0  0  0  0
  -48.0194   -2.2241  -23.1771 C   0  0  0  0  0
  -48.2592   -1.2334  -24.1456 C   0  0  0  0  0
  -49.1137   -0.1471  -23.8615 C   0  0  0  0  0
  -49.7507   -0.0471  -22.6125 C   0  0  0  0  0
  -49.5182   -1.0609  -21.6815 C   0  0  0  0  0
  -51.9677    1.9901  -18.3333 N   0  0  0  0  0
  -50.7877   -0.2455  -19.7267 N   0  0  0  0  0
  -49.9810   -1.1648  -20.4232 N   0  0  0  0  0
  -48.8785   -3.9049  -18.0604 N   0  0  0  0  0
  -53.4859    2.1860  -20.0948 O   0  0  0  0  0
  -52.3777    0.0742  -21.4102 O   0  0  0  0  0
  -50.3626   -2.1212  -17.7324 O   0  0  0  0  0
  -49.0706   -6.4995  -12.6659 Cl  0  0  0  0  0
  -47.4761   -1.3376  -25.7072 Cl  0  0  0  0  0
  3  2  1  0  0  0
  3 21  1  0  0  0
  4  5  1  0  0  0
  5 22  1  0  0  0
  6  7  1  0  0  0
  7 24  1  0  0  0
  9 10  1  0  0  0
 11 28  1  0  0  0
 11 12  1  0  0  0
 13  8  1  0  0  0
 14 15  1  0  0  0
 16 17  1  0  0  0
 17 29  1  0  0  0
 18 19  1  0  0  0
 20 23  1  0  0  0
 20 15  1  0  0  0
 21  4  1  0  0  0
 22 23  1  0  0  0
 23  6  1  0  0  0
 24  8  1  0  0  0
  1  2  2  0  0  0
  4 25  2  0  0  0
  5 26  2  0  0  0
  6 14  2  0  0  0
  7 27  2  0  0  0
  8  9  2  0  0  0
 10 11  2  0  0  0
 12 13  2  0  0  0
 15 16  2  0  0  0
 17 18  2  0  0  0
 19 20  2  0  0  0
M  END
> <rmsd>
0.701572061

$$$$
ZINC000004733041 ZINC04733041 PubChem-92230333


 32 35  0  0  0  0  0  0  0  0999 V2000
  -44.3462    2.0609  -16.6905 C   0  0  0  0  0
  -46.0676    0.3812  -17.2689 C   0  0  0  0  0
  -46.9472    1.3557  -17.7644 C   0  0  0  0  0
  -48.1948    0.9844  -18.2706 C   0  0  0  0  0
  -48.5884   -0.3644  -18.2907 C   0  0  0  0  0
  -47.6980   -1.3334  -17.8000 C   0  0  0  0  0
  -46.4514   -0.9629  -17.2895 C   0  0  0  0  0
  -50.4805    0.1477  -19.8517 C   0  0  0  0  0
  -52.0264    0.1466  -19.8752 C   0  0  0  0  0
  -52.6863   -0.8369  -18.9057 C   0  0  0  0  0
  -51.9561   -2.1652  -18.9323 C   0  0  0  0  0
  -50.5803   -1.9235  -18.4210 C   0  0  0  0  0
  -52.5380    1.5269  -19.6411 C   0  0  0  0  0
  -52.6685    3.5645  -18.1581 C   0  0  0  0  0
  -52.1641    4.0005  -16.8277 C   0  0  0  0  0
  -52.9716    3.8813  -15.6940 C   0  0  0  0  0
  -52.4782    4.2704  -14.4477 C   0  0  0  0  0
  -51.1760    4.7692  -14.3544 C   0  0  0  0  0
  -50.8644    4.4968  -16.6928 C   0  0  0  0  0
  -49.9179   -0.1275  -21.2115 C   0  0  0  0  0
  -50.1508   -1.3512  -21.8571 C   0  0  0  0  0
  -49.6165   -1.5871  -23.1273 C   0  0  0  0  0
  -48.8478   -0.6024  -23.7557 C   0  0  0  0  0
  -48.6129    0.6174  -23.1140 C   0  0  0  0  0
  -49.1468    0.8539  -21.8434 C   0  0  0  0  0
  -44.8105    0.7194  -16.7593 O   0  0  0  0  0
  -50.0929   -2.7153  -17.5693 O   0  0  0  0  0
  -53.2098    2.1004  -20.5398 O   0  0  0  0  0
  -49.8733   -0.7350  -18.8385 N   0  0  0  0  0
  -52.2431    2.1986  -18.4153 N   0  0  0  0  0
  -50.4019    4.8706  -15.4691 N   0  0  0  0  0
  -48.3339   -0.8294  -24.9895 F   0  0  0  0  0
  1 26  1  0  0  0
  2 26  1  0  0  0
  3  4  1  0  0  0
  5  6  1  0  0  0
  5 29  1  0  0  0
  7  2  1  0  0  0
  8 29  1  0  0  0
  8  9  1  0  0  0
  8 20  1  0  0  0
  9 10  1  0  0  0
  9 13  1  0  0  0
 10 11  1  0  0  0
 11 12  1  0  0  0
 12 29  1  0  0  0
 13 30  1  0  0  0
 14 30  1  0  0  0
 14 15  1  0  0  0
 16 17  1  0  0  0
 18 31  1  0  0  0
 19 15  1  0  0  0
 21 22  1  0  0  0
 23 24  1  0  0  0
 23 32  1  0  0  0
 25 20  1  0  0  0
  2  3  2  0  0  0
  4  5  2  0  0  0
  6  7  2  0  0  0
 12 27  2  0  0  0
 13 28  2  0  0  0
 15 16  2  0  0  0
 17 18  2  0  0  0
 19 31  2  0  0  0
 20 21  2  0  0  0
 22 23  2  0  0  0
 24 25  2  0  0  0
M  END
> <rmsd>
0.375040382

$$$$
ZINC000120428911 PubChem-124568485


 25 27  0  0  0  0  0  0  0  0999 V2000
  -54.6279    5.9501  -17.9126 C   0  0  0  0  0
  -53.6802    4.9184  -17.4176 C   0  0  0  0  0
  -53.1436    5.0214  -16.1315 C   0  0  0  0  0
  -52.2522    4.0502  -15.6675 C   0  0  0  0  0
  -51.8978    2.9765  -16.4898 C   0  0  0  0  0
  -52.4305    2.8655  -17.7789 C   0  0  0  0  0
  -52.4822    1.4635  -19.9273 C   0  0  0  0  0
  -51.9815    0.2448  -20.6394 C   0  0  0  0  0
  -52.6602   -1.0368  -20.1520 C   0  0  0  0  0
  -52.2391   -1.4018  -18.7332 C   0  0  0  0  0
  -50.7521   -1.3581  -18.5708 C   0  0  0  0  0
  -48.5685   -0.2071  -18.9850 C   0  0  0  0  0
  -50.4506    0.1367  -20.6037 C   0  0  0  0  0
  -49.9324   -0.6080  -21.7954 C   0  0  0  0  0
  -50.1485   -1.9393  -22.1088 C   0  0  0  0  0
  -48.0690   -0.9854  -24.8347 C   0  0  0  0  0
  -49.1214   -0.0834  -22.7785 C   0  0  0  0  0
  -53.3250    3.8444  -18.2387 C   0  0  0  0  0
  -51.7316    4.1492  -14.4211 F   0  0  0  0  0
  -52.0421    1.7504  -18.5914 N   0  0  0  0  0
  -49.9517   -0.4603  -19.3599 N   0  0  0  0  0
  -49.4868   -2.1987  -23.2531 N   0  0  0  0  0
  -48.8827   -1.0873  -23.6382 N   0  0  0  0  0
  -53.3066    2.2136  -20.5135 O   0  0  0  0  0
  -50.2150   -2.0816  -17.6902 O   0  0  0  0  0
  1  2  1  0  0  0
  3  4  1  0  0  0
  4 19  1  0  0  0
  5  6  1  0  0  0
  6 20  1  0  0  0
  8  7  1  0  0  0
  8  9  1  0  0  0
  9 10  1  0  0  0
 10 11  1  0  0  0
 11 21  1  0  0  0
 12 21  1  0  0  0
 13 21  1  0  0  0
 13 14  1  0  0  0
 13  8  1  0  0  0
 14 15  1  0  0  0
 16 23  1  0  0  0
 18  2  1  0  0  0
 20  7  1  0  0  0
 23 22  1  0  0  0
 23 17  1  0  0  0
  2  3  2  0  0  0
  4  5  2  0  0  0
  6 18  2  0  0  0
  7 24  2  0  0  0
 11 25  2  0  0  0
 15 22  2  0  0  0
 17 14  2  0  0  0
M  END
> <rmsd>
0.554996014

$$$$
ZINC000033554565 MCULE-1829814183 MolPort-035-945-407


 32 35  0  0  0  0  0  0  0  0999 V2000
  -49.8598    0.1364  -22.1706 C   0  0  0  0  0
  -49.6499    0.2191  -19.6882 C   0  0  0  0  0
  -50.2433   -1.0581  -19.1263 C   0  0  0  0  0
  -49.5994   -1.3686  -17.7916 C   0  0  0  0  0
  -49.1484   -3.0529  -16.4389 C   0  0  0  0  0
  -51.4367    1.2154  -21.1920 C   0  0  0  0  0
  -51.7486    1.2444  -22.5580 C   0  0  0  0  0
  -50.7107    0.5439  -23.1456 C   0  0  0  0  0
  -50.4510    0.2244  -24.4725 C   0  0  0  0  0
  -49.0409   -0.8309  -26.0569 C   0  0  0  0  0
  -47.9057   -1.5735  -26.3813 C   0  0  0  0  0
  -47.0468   -1.9890  -25.3673 C   0  0  0  0  0
  -47.3214   -1.6632  -24.0405 C   0  0  0  0  0
  -46.3866   -2.1231  -22.9733 C   0  0  0  0  0
  -48.4710   -0.9137  -23.7381 C   0  0  0  0  0
  -52.2822    1.8301  -20.1504 C   0  0  0  0  0
  -52.6537    2.1837  -17.6578 C   0  0  0  0  0
  -52.1360    3.0009  -16.6468 C   0  0  0  0  0
  -52.8954    3.2960  -15.5129 C   0  0  0  0  0
  -52.3436    4.1898  -14.4610 C   0  0  0  0  0
  -54.1780    2.7641  -15.3745 C   0  0  0  0  0
  -54.6946    1.9241  -16.3630 C   0  0  0  0  0
  -53.9369    1.6141  -17.5055 C   0  0  0  0  0
  -55.7031    0.1045  -18.3700 C   0  0  0  0  0
  -50.2780    0.5398  -20.9639 N   0  0  0  0  0
  -49.3215   -0.5064  -24.7598 N   0  0  0  0  0
  -48.7486   -0.5884  -22.4379 N   0  0  0  0  0
  -51.8273    1.9038  -18.7944 N   0  0  0  0  0
  -50.1417   -2.5457  -17.2775 O   0  0  0  0  0
  -51.2396    0.6019  -25.3841 O   0  0  0  0  0
  -53.3934    2.3334  -20.4715 O   0  0  0  0  0
  -54.4280    0.7251  -18.4692 O   0  0  0  0  0
  1 25  1  0  0  0
  1 27  1  0  0  0
  2 25  1  0  0  0
  2  3  1  0  0  0
  3  4  1  0  0  0
  4 29  1  0  0  0
  5 29  1  0  0  0
  6 16  1  0  0  0
  7  8  1  0  0  0
  8  9  1  0  0  0
  9 26  1  0  0  0
 11 12  1  0  0  0
 13 15  1  0  0  0
 14 13  1  0  0  0
 15 26  1  0  0  0
 16 28  1  0  0  0
 18 19  1  0  0  0
 20 19  1  0  0  0
 21 22  1  0  0  0
 23 32  1  0  0  0
 23 17  1  0  0  0
 24 32  1  0  0  0
 25  6  1  0  0  0
 26 10  1  0  0  0
 28 17  1  0  0  0
  6  7  2  0  0  0
  8  1  2  0  0  0
  9 30  2  0  0  0
 10 11  2  0  0  0
 12 13  2  0  0  0
 15 27  2  0  0  0
 16 31  2  0  0  0
 17 18  2  0  0  0
 19 21  2  0  0  0
 22 23  2  0  0  0
M  END
> <rmsd>
0.528704762

$$$$
ZINC000096181230


 25 27  0  0  0  0  0  0  0  0999 V2000
  -53.8968    2.7263  -15.2309 C   0  0  0  0  0
  -52.6439    3.4904  -15.5013 C   0  0  0  0  0
  -52.0946    3.7608  -16.7335 C   0  0  0  0  0
  -52.5952    3.3166  -18.0639 C   0  0  0  0  0
  -52.3339    1.3415  -19.6096 C   0  0  0  0  0
  -51.6904    0.0321  -19.9241 C   0  0  0  0  0
  -51.9837   -0.9979  -18.8248 C   0  0  0  0  0
  -50.6377   -1.4320  -18.4019 C   0  0  0  0  0
  -48.1943   -0.8424  -18.7370 C   0  0  0  0  0
  -50.1614    0.1927  -20.0202 C   0  0  0  0  0
  -49.6842   -0.0436  -21.4206 C   0  0  0  0  0
  -49.8492   -1.2894  -22.0459 C   0  0  0  0  0
  -49.3968   -1.4834  -23.3543 C   0  0  0  0  0
  -48.7786   -0.4354  -24.0425 C   0  0  0  0  0
  -48.2974   -0.6417  -25.4332 C   0  0  0  0  0
  -48.6134    0.8069  -23.4232 C   0  0  0  0  0
  -49.0654    1.0018  -22.1145 C   0  0  0  0  0
  -50.9250    4.4589  -16.4837 C   0  0  0  0  0
  -52.0359    3.9691  -13.1266 C   0  0  0  0  0
  -52.0137    2.0269  -18.3970 N   0  0  0  0  0
  -49.6002   -0.7813  -19.1031 N   0  0  0  0  0
  -50.8042    4.6055  -15.1450 N   0  0  0  0  0
  -51.8409    4.0215  -14.5655 N   0  0  0  0  0
  -53.1506    1.8409  -20.4289 O   0  0  0  0  0
  -50.4297   -2.2846  -17.4990 O   0  0  0  0  0
  1  2  1  0  0  0
  3 18  1  0  0  0
  4  3  1  0  0  0
  4 20  1  0  0  0
  6  5  1  0  0  0
  6  7  1  0  0  0
  7  8  1  0  0  0
  8 21  1  0  0  0
  9 21  1  0  0  0
 10 21  1  0  0  0
 10 11  1  0  0  0
 10  6  1  0  0  0
 12 13  1  0  0  0
 14 16  1  0  0  0
 15 14  1  0  0  0
 17 11  1  0  0  0
 19 23  1  0  0  0
 20  5  1  0  0  0
 23 22  1  0  0  0
 23  2  1  0  0  0
  2  3  2  0  0  0
  5 24  2  0  0  0
  8 25  2  0  0  0
 11 12  2  0  0  0
 13 14  2  0  0  0
 16 17  2  0  0  0
 18 22  2  0  0  0
M  END
> <rmsd>
0.487191349

$$$$
ZINC000096181230


 25 27  0  0  0  0  0  0  0  0999 V2000
  -50.7930    5.8228  -17.4838 C   0  0  0  0  0
  -51.2804    4.8359  -16.4752 C   0  0  0  0  0
  -52.0780    3.7393  -16.7144 C   0  0  0  0  0
  -52.6206    3.2831  -18.0261 C   0  0  0  0  0
  -52.3315    1.3475  -19.6157 C   0  0  0  0  0
  -51.6844    0.0445  -19.9506 C   0  0  0  0  0
  -51.9879   -1.0018  -18.8696 C   0  0  0  0  0
  -50.6466   -1.4292  -18.4263 C   0  0  0  0  0
  -48.2025   -0.8231  -18.7188 C   0  0  0  0  0
  -50.1535    0.2021  -20.0335 C   0  0  0  0  0
  -49.6633   -0.0403  -21.4290 C   0  0  0  0  0
  -49.8841   -1.2665  -22.0756 C   0  0  0  0  0
  -49.4171   -1.4680  -23.3782 C   0  0  0  0  0
  -48.7277   -0.4472  -24.0393 C   0  0  0  0  0
  -48.2306   -0.6625  -25.4238 C   0  0  0  0  0
  -48.5050    0.7750  -23.3980 C   0  0  0  0  0
  -48.9723    0.9777  -22.0952 C   0  0  0  0  0
  -52.2633    3.1269  -15.4846 C   0  0  0  0  0
  -50.2049    5.8644  -14.4679 C   0  0  0  0  0
  -51.9824    2.0364  -18.4132 N   0  0  0  0  0
  -49.6018   -0.7721  -19.1104 N   0  0  0  0  0
  -51.5949    3.8477  -14.5553 N   0  0  0  0  0
  -51.0105    4.8711  -15.1600 N   0  0  0  0  0
  -53.1952    1.8269  -20.3978 O   0  0  0  0  0
  -50.4482   -2.2770  -17.5159 O   0  0  0  0  0
  1  2  1  0  0  0
  3 18  1  0  0  0
  4  3  1  0  0  0
  4 20  1  0  0  0
  6  5  1  0  0  0
  6  7  1  0  0  0
  7  8  1  0  0  0
  8 21  1  0  0  0
  9 21  1  0  0  0
 10 21  1  0  0  0
 10 11  1  0  0  0
 10  6  1  0  0  0
 12 13  1  0  0  0
 14 16  1  0  0  0
 15 14  1  0  0  0
 17 11  1  0  0  0
 19 23  1  0  0  0
 20  5  1  0  0  0
 23 22  1  0  0  0
 23  2  1  0  0  0
  2  3  2  0  0  0
  5 24  2  0  0  0
  8 25  2  0  0  0
 11 12  2  0  0  0
 13 14  2  0  0  0
 16 17  2  0  0  0
 18 22  2  0  0  0
M  END
> <rmsd>
0.481800914

$$$$
ZINC000072335159 ZINC72335159 PubChem-95797838


 27 29  0  0  0  0  0  0  0  0999 V2000
  -49.6249    2.2654  -22.6853 C   0  0  0  0  0
  -49.2666    0.8238  -22.7922 C   0  0  0  0  0
  -48.9422   -0.0345  -21.7522 C   0  0  0  0  0
  -48.6044   -1.2311  -22.3622 C   0  0  0  0  0
  -48.5372   -2.0743  -24.6950 C   0  0  0  0  0
  -48.7929    0.2964  -20.2865 C   0  0  0  0  0
  -49.8526    1.2606  -19.7450 C   0  0  0  0  0
  -51.2526    0.6456  -19.7553 C   0  0  0  0  0
  -52.6636   -1.0636  -18.8786 C   0  0  0  0  0
  -52.2428    1.7351  -19.4728 C   0  0  0  0  0
  -53.1647    3.4764  -17.8995 C   0  0  0  0  0
  -52.8987    3.9903  -16.5291 C   0  0  0  0  0
  -53.5240    3.3988  -15.4259 C   0  0  0  0  0
  -53.2558    3.8665  -14.1356 C   0  0  0  0  0
  -52.3585    4.9223  -13.9471 C   0  0  0  0  0
  -51.7265    5.5084  -15.0483 C   0  0  0  0  0
  -51.9944    5.0411  -16.3387 C   0  0  0  0  0
  -48.7759   -1.0597  -23.6862 N   0  0  0  0  0
  -49.1665    0.1725  -23.9632 N   0  0  0  0  0
  -51.3532   -0.4327  -18.7639 N   0  0  0  0  0
  -48.6391   -0.8955  -19.4459 N   0  0  0  0  0
  -52.2207    2.4174  -18.2173 N   0  0  0  0  0
  -50.1785   -1.6509  -19.1602 S   0  0  0  0  0
  -50.0470   -2.6062  -18.0080 O   0  0  0  0  0
  -50.6035   -2.4128  -20.3860 O   0  0  0  0  0
  -53.0954    2.0378  -20.3497 O   0  0  0  0  0
  -52.0990    5.3753  -12.6973 F   0  0  0  0  0
  1  2  1  0  0  0
  2  3  1  0  0  0
  4 18  1  0  0  0
  5 18  1  0  0  0
  6  3  1  0  0  0
  6  7  1  0  0  0
  6 21  1  0  0  0
  7  8  1  0  0  0
  8 20  1  0  0  0
  8 10  1  0  0  0
  9 20  1  0  0  0
 10 22  1  0  0  0
 11 22  1  0  0  0
 11 12  1  0  0  0
 13 14  1  0  0  0
 15 16  1  0  0  0
 15 27  1  0  0  0
 17 12  1  0  0  0
 18 19  1  0  0  0
 23 20  1  0  0  0
 23 21  1  0  0  0
  2 19  2  0  0  0
  3  4  2  0  0  0
 10 26  2  0  0  0
 12 13  2  0  0  0
 14 15  2  0  0  0
 16 17  2  0  0  0
 23 24  2  0  0  0
 23 25  2  0  0  0
M  END
> <rmsd>
0.543849111

$$$$
ZINC000036054391 ZINC36054391 PubChem-93152296


 32 34  0  0  0  0  0  0  0  0999 V2000
  -52.6970   -0.8977  -15.5534 C   0  0  0  0  0
  -52.6511   -2.4100  -15.6892 C   0  0  0  0  0
  -51.6432   -3.0030  -14.7214 C   0  0  0  0  0
  -52.3881   -2.8457  -17.1325 C   0  0  0  0  0
  -51.0942   -2.3238  -17.6886 C   0  0  0  0  0
  -49.8805   -0.7020  -19.2030 C   0  0  0  0  0
  -50.3354    0.4455  -20.0884 C   0  0  0  0  0
  -51.8586    0.3749  -20.1851 C   0  0  0  0  0
  -52.3077   -0.7255  -19.2383 C   0  0  0  0  0
  -52.4670    1.6785  -19.7871 C   0  0  0  0  0
  -52.8453    3.4473  -18.0258 C   0  0  0  0  0
  -52.4979    3.6790  -16.5981 C   0  0  0  0  0
  -53.2932    3.1294  -15.5862 C   0  0  0  0  0
  -52.9492    3.3203  -14.2445 C   0  0  0  0  0
  -51.8071    4.0560  -13.9135 C   0  0  0  0  0
  -51.0067    4.5978  -14.9241 C   0  0  0  0  0
  -51.3501    4.4068  -16.2661 C   0  0  0  0  0
  -49.6790    0.4156  -21.4390 C   0  0  0  0  0
  -48.9036    1.5211  -21.7963 C   0  0  0  0  0
  -48.2659    1.5697  -23.0323 C   0  0  0  0  0
  -48.3996    0.5090  -23.9243 C   0  0  0  0  0
  -49.1724   -0.6164  -23.5955 C   0  0  0  0  0
  -49.8247   -0.6703  -22.3356 C   0  0  0  0  0
  -50.8637   -2.9260  -22.7023 C   0  0  0  0  0
  -48.6630   -1.6703  -25.7826 C   0  0  0  0  0
  -50.0029   -2.7904  -17.2643 O   0  0  0  0  0
  -53.1723    2.3113  -20.6173 O   0  0  0  0  0
  -50.6161   -1.7598  -21.9304 O   0  0  0  0  0
  -49.2932   -1.6709  -24.5082 O   0  0  0  0  0
  -51.0950   -1.3104  -18.7005 N   0  0  0  0  0
  -52.2546    2.1967  -18.4721 N   0  0  0  0  0
  -51.4741    4.2410  -12.6138 F   0  0  0  0  0
  1  2  1  0  0  0
  2  3  1  0  0  0
  2  4  1  0  0  0
  4  5  1  0  0  0
  5 30  1  0  0  0
  6 30  1  0  0  0
  6  7  1  0  0  0
  7  8  1  0  0  0
  7 18  1  0  0  0
  8  9  1  0  0  0
  8 10  1  0  0  0
  9 30  1  0  0  0
 10 31  1  0  0  0
 11 31  1  0  0  0
 11 12  1  0  0  0
 13 14  1  0  0  0
 15 16  1  0  0  0
 15 32  1  0  0  0
 17 12  1  0  0  0
 19 20  1  0  0  0
 21 22  1  0  0  0
 22 29  1  0  0  0
 23 28  1  0  0  0
 23 18  1  0  0  0
 24 28  1  0  0  0
 25 29  1  0  0  0
  5 26  2  0  0  0
 10 27  2  0  0  0
 12 13  2  0  0  0
 14 15  2  0  0  0
 16 17  2  0  0  0
 18 19  2  0  0  0
 20 21  2  0  0  0
 22 23  2  0  0  0
M  END
> <rmsd>
0.606550634

$$$$
ZINC000096181382 ZINC96181382 PubChem-97457252


 24 26  0  0  0  0  0  0  0  0999 V2000
  -48.2367   -0.6578  -25.4177 C   0  0  0  0  0
  -48.7304   -0.4442  -24.0326 C   0  0  0  0  0
  -48.6044    0.8119  -23.4318 C   0  0  0  0  0
  -49.0690    1.0140  -22.1287 C   0  0  0  0  0
  -49.6591   -0.0387  -21.4209 C   0  0  0  0  0
  -49.7865   -1.2977  -22.0283 C   0  0  0  0  0
  -49.3219   -1.4988  -23.3312 C   0  0  0  0  0
  -50.1557    0.2063  -20.0286 C   0  0  0  0  0
  -51.6846    0.0340  -19.9532 C   0  0  0  0  0
  -51.9844   -1.0124  -18.8715 C   0  0  0  0  0
  -50.6412   -1.4270  -18.4216 C   0  0  0  0  0
  -48.2054   -0.7780  -18.6843 C   0  0  0  0  0
  -52.3433    1.3334  -19.6276 C   0  0  0  0  0
  -52.6333    3.2893  -18.0617 C   0  0  0  0  0
  -52.0934    3.7590  -16.7576 C   0  0  0  0  0
  -50.9394    4.5496  -16.7216 C   0  0  0  0  0
  -50.4178    4.9709  -15.4945 C   0  0  0  0  0
  -51.0462    4.5975  -14.3024 C   0  0  0  0  0
  -52.1951    3.8010  -14.3370 C   0  0  0  0  0
  -52.7170    3.3795  -15.5638 C   0  0  0  0  0
  -50.4393   -2.2795  -17.5173 O   0  0  0  0  0
  -53.1816    1.8193  -20.4327 O   0  0  0  0  0
  -49.5992   -0.7564  -19.0968 N   0  0  0  0  0
  -52.0208    2.0194  -18.4159 N   0  0  0  0  0
  1  2  1  0  0  0
  3  4  1  0  0  0
  5  6  1  0  0  0
  7  2  1  0  0  0
  8  5  1  0  0  0
  8  9  1  0  0  0
  8 23  1  0  0  0
  9 10  1  0  0  0
  9 13  1  0  0  0
 10 11  1  0  0  0
 11 23  1  0  0  0
 12 23  1  0  0  0
 13 24  1  0  0  0
 14 24  1  0  0  0
 14 15  1  0  0  0
 16 17  1  0  0  0
 18 19  1  0  0  0
 20 15  1  0  0  0
  2  3  2  0  0  0
  4  5  2  0  0  0
  6  7  2  0  0  0
 11 21  2  0  0  0
 13 22  2  0  0  0
 15 16  2  0  0  0
 17 18  2  0  0  0
 19 20  2  0  0  0
M  END
> <rmsd>
0.457719475

$$$$
ZINC000096181382 ZINC96181382 PubChem-97457252


 24 26  0  0  0  0  0  0  0  0999 V2000
  -48.2395   -0.5245  -25.3555 C   0  0  0  0  0
  -48.7274   -0.3472  -23.9632 C   0  0  0  0  0
  -49.3221   -1.4181  -23.2895 C   0  0  0  0  0
  -49.7810   -1.2512  -21.9798 C   0  0  0  0  0
  -49.6446   -0.0105  -21.3378 C   0  0  0  0  0
  -49.0515    1.0586  -22.0179 C   0  0  0  0  0
  -48.5928    0.8908  -23.3278 C   0  0  0  0  0
  -50.1352    0.1979  -19.9378 C   0  0  0  0  0
  -51.6633    0.0307  -19.8604 C   0  0  0  0  0
  -51.9737   -0.9862  -18.7553 C   0  0  0  0  0
  -50.6318   -1.4446  -18.3425 C   0  0  0  0  0
  -48.1880   -0.8435  -18.6350 C   0  0  0  0  0
  -52.3613    1.3395  -19.6353 C   0  0  0  0  0
  -51.1891    1.8048  -17.4219 C   0  0  0  0  0
  -51.1723    2.8765  -16.3911 C   0  0  0  0  0
  -52.0672    2.8286  -15.3166 C   0  0  0  0  0
  -52.0649    3.8471  -14.3584 C   0  0  0  0  0
  -51.1717    4.9165  -14.4768 C   0  0  0  0  0
  -50.2818    4.9688  -15.5543 C   0  0  0  0  0
  -50.2837    3.9505  -16.5126 C   0  0  0  0  0
  -50.4339   -2.3070  -17.4468 O   0  0  0  0  0
  -53.1862    1.7350  -20.4988 O   0  0  0  0  0
  -49.5850   -0.7958  -19.0344 N   0  0  0  0  0
  -52.1220    2.1547  -18.4819 N   0  0  0  0  0
  1  2  1  0  0  0
  3  4  1  0  0  0
  5  6  1  0  0  0
  7  2  1  0  0  0
  8  5  1  0  0  0
  8  9  1  0  0  0
  8 23  1  0  0  0
  9 10  1  0  0  0
  9 13  1  0  0  0
 10 11  1  0  0  0
 11 23  1  0  0  0
 12 23  1  0  0  0
 13 24  1  0  0  0
 14 24  1  0  0  0
 14 15  1  0  0  0
 16 17  1  0  0  0
 18 19  1  0  0  0
 20 15  1  0  0  0
  2  3  2  0  0  0
  4  5  2  0  0  0
  6  7  2  0  0  0
 11 21  2  0  0  0
 13 22  2  0  0  0
 15 16  2  0  0  0
 17 18  2  0  0  0
 19 20  2  0  0  0
M  END
> <rmsd>
0.599891007

$$$$
ZINC000096181382 ZINC96181382 PubChem-97457252


 24 26  0  0  0  0  0  0  0  0999 V2000
  -48.2394   -0.5254  -25.3552 C   0  0  0  0  0
  -48.7274   -0.3481  -23.9629 C   0  0  0  0  0
  -49.3219   -1.4190  -23.2891 C   0  0  0  0  0
  -49.7808   -1.2521  -21.9793 C   0  0  0  0  0
  -49.6443   -0.0112  -21.3375 C   0  0  0  0  0
  -49.0515    1.0579  -22.0177 C   0  0  0  0  0
  -48.5928    0.8900  -23.3277 C   0  0  0  0  0
  -50.1349    0.1973  -19.9375 C   0  0  0  0  0
  -51.6631    0.0303  -19.8601 C   0  0  0  0  0
  -51.9737   -0.9865  -18.7551 C   0  0  0  0  0
  -50.6319   -1.4451  -18.3422 C   0  0  0  0  0
  -48.1879   -0.8446  -18.6348 C   0  0  0  0  0
  -52.3609    1.3393  -19.6349 C   0  0  0  0  0
  -51.1887    1.8044  -17.4216 C   0  0  0  0  0
  -51.1720    2.8759  -16.3905 C   0  0  0  0  0
  -50.2837    3.9501  -16.5119 C   0  0  0  0  0
  -50.2822    4.9683  -15.5536 C   0  0  0  0  0
  -51.1721    4.9158  -14.4761 C   0  0  0  0  0
  -52.0651    3.8462  -14.3579 C   0  0  0  0  0
  -52.0670    2.8276  -15.3161 C   0  0  0  0  0
  -50.4341   -2.3076  -17.4465 O   0  0  0  0  0
  -53.1861    1.7346  -20.4983 O   0  0  0  0  0
  -49.5850   -0.7965  -19.0340 N   0  0  0  0  0
  -52.1217    2.1544  -18.4815 N   0  0  0  0  0
  1  2  1  0  0  0
  3  4  1  0  0  0
  5  6  1  0  0  0
  7  2  1  0  0  0
  8  5  1  0  0  0
  8  9  1  0  0  0
  8 23  1  0  0  0
  9 10  1  0  0  0
  9 13  1  0  0  0
 10 11  1  0  0  0
 11 23  1  0  0  0
 12 23  1  0  0  0
 13 24  1  0  0  0
 14 24  1  0  0  0
 14 15  1  0  0  0
 16 17  1  0  0  0
 18 19  1  0  0  0
 20 15  1  0  0  0
  2  3  2  0  0  0
  4  5  2  0  0  0
  6  7  2  0  0  0
 11 21  2  0  0  0
 13 22  2  0  0  0
 15 16  2  0  0  0
 17 18  2  0  0  0
 19 20  2  0  0  0
M  END
> <rmsd>
0.59981966

$$$$
ZINC000253471412 PubChem-124891440


 32 35  0  0  0  0  0  0  0  0999 V2000
  -47.5936   -1.0837  -25.4014 C   0  0  0  0  0
  -48.5336   -0.7402  -24.3030 C   0  0  0  0  0
  -48.0343   -0.3831  -23.0517 C   0  0  0  0  0
  -48.9307   -0.0639  -22.0348 C   0  0  0  0  0
  -50.3147   -0.1042  -22.2895 C   0  0  0  0  0
  -51.3437    0.2030  -21.2298 C   0  0  0  0  0
  -51.1080    1.5433  -20.5343 C   0  0  0  0  0
  -52.3333    1.9969  -19.8159 C   0  0  0  0  0
  -53.4820    2.5129  -17.6334 C   0  0  0  0  0
  -53.1724    2.4954  -16.1439 C   0  0  0  0  0
  -52.3463    3.6729  -15.7411 C   0  0  0  0  0
  -52.9066    4.6591  -14.9221 C   0  0  0  0  0
  -52.1394    5.7570  -14.5202 C   0  0  0  0  0
  -50.8078    5.8679  -14.9318 C   0  0  0  0  0
  -50.2418    4.8794  -15.7424 C   0  0  0  0  0
  -51.0085    3.7817  -16.1442 C   0  0  0  0  0
  -51.5453   -0.9375  -20.2744 C   0  0  0  0  0
  -52.7330   -1.6983  -20.3632 C   0  0  0  0  0
  -52.9655   -2.7719  -19.4849 C   0  0  0  0  0
  -51.9859   -3.0486  -18.5354 C   0  0  0  0  0
  -50.8433   -2.3222  -18.4453 C   0  0  0  0  0
  -50.5779   -1.2535  -19.2963 C   0  0  0  0  0
  -50.7563   -3.9259  -16.8297 C   0  0  0  0  0
  -50.7365   -0.4795  -23.5780 C   0  0  0  0  0
  -48.4361    0.2930  -20.7859 O   0  0  0  0  0
  -53.3689    2.3014  -20.4670 O   0  0  0  0  0
  -50.0472    6.9585  -14.5340 O   0  0  0  0  0
  -50.0621   -2.8183  -17.4211 O   0  0  0  0  0
  -51.9790   -4.0374  -17.5719 O   0  0  0  0  0
  -51.9645   -0.5392  -23.8546 O   0  0  0  0  0
  -49.8445   -0.7761  -24.5196 O   0  0  0  0  0
  -52.3185    2.0826  -18.3920 N   0  0  0  0  0
  1  2  1  0  0  0
  2 31  1  0  0  0
  3  4  1  0  0  0
  4 25  1  0  0  0
  5 24  1  0  0  0
  6  5  1  0  0  0
  6  7  1  0  0  0
  6 17  1  0  0  0
  7  8  1  0  0  0
  8 32  1  0  0  0
  9 32  1  0  0  0
  9 10  1  0  0  0
 10 11  1  0  0  0
 12 13  1  0  0  0
 14 27  1  0  0  0
 14 15  1  0  0  0
 16 11  1  0  0  0
 18 19  1  0  0  0
 20 21  1  0  0  0
 20 29  1  0  0  0
 21 28  1  0  0  0
 22 17  1  0  0  0
 23 28  1  0  0  0
 23 29  1  0  0  0
 24 31  1  0  0  0
  2  3  2  0  0  0
  4  5  2  0  0  0
  8 26  2  0  0  0
 11 12  2  0  0  0
 13 14  2  0  0  0
 15 16  2  0  0  0
 17 18  2  0  0  0
 19 20  2  0  0  0
 21 22  2  0  0  0
 24 30  2  0  0  0
M  END
> <rmsd>
0.496994138

$$$$
ZINC000072242259 PubChem-95740472


 24 25  0  0  0  0  0  0  0  0999 V2000
  -52.3808    5.4427  -14.7203 C   0  0  0  0  0
  -51.5947    4.4295  -15.5300 C   0  0  0  0  0
  -51.2512    2.0962  -15.5512 C   0  0  0  0  0
  -51.7564    0.8399  -14.8672 C   0  0  0  0  0
  -53.1914    3.0203  -16.6402 C   0  0  0  0  0
  -52.5272    3.2086  -18.0087 C   0  0  0  0  0
  -52.2960    1.2982  -19.6431 C   0  0  0  0  0
  -51.6690   -0.0056  -20.0106 C   0  0  0  0  0
  -51.9745   -1.0660  -18.9437 C   0  0  0  0  0
  -50.6343   -1.5048  -18.5092 C   0  0  0  0  0
  -48.1875   -0.9099  -18.8047 C   0  0  0  0  0
  -50.1376    0.1389  -20.1024 C   0  0  0  0  0
  -49.6585   -0.0993  -21.5020 C   0  0  0  0  0
  -49.0024    0.9321  -22.1821 C   0  0  0  0  0
  -48.5452    0.7334  -23.4885 C   0  0  0  0  0
  -48.7436   -0.4982  -24.1195 C   0  0  0  0  0
  -49.3997   -1.5319  -23.4450 C   0  0  0  0  0
  -49.8565   -1.3344  -22.1389 C   0  0  0  0  0
  -52.2696    3.1381  -15.4983 N   0  0  0  0  0
  -51.9099    1.9654  -18.4397 N   0  0  0  0  0
  -49.5885   -0.8441  -19.1877 N   0  0  0  0  0
  -53.1720    1.7979  -20.3979 O   0  0  0  0  0
  -50.4374   -2.3701  -17.6158 O   0  0  0  0  0
  -48.3001   -0.6899  -25.3849 F   0  0  0  0  0
  1  2  1  0  0  0
  2 19  1  0  0  0
  3 19  1  0  0  0
  3  4  1  0  0  0
  5 19  1  0  0  0
  5  6  1  0  0  0
  6 20  1  0  0  0
  8  7  1  0  0  0
  8  9  1  0  0  0
  9 10  1  0  0  0
 10 21  1  0  0  0
 11 21  1  0  0  0
 12 21  1  0  0  0
 12 13  1  0  0  0
 12  8  1  0  0  0
 14 15  1  0  0  0
 16 24  1  0  0  0
 16 17  1  0  0  0
 18 13  1  0  0  0
 20  7  1  0  0  0
  7 22  2  0  0  0
 10 23  2  0  0  0
 13 14  2  0  0  0
 15 16  2  0  0  0
 17 18  2  0  0  0
M  END
> <rmsd>
0.430833191

$$$$
ZINC000020924280 ZINC20924280 PubChem-92705263


 27 29  0  0  0  0  0  0  0  0999 V2000
  -47.6117   -0.9760  -24.5478 C   0  0  0  0  0
  -48.7123   -1.0678  -23.5535 C   0  0  0  0  0
  -49.9259   -1.6648  -23.9076 C   0  0  0  0  0
  -50.9620   -1.7513  -22.9727 C   0  0  0  0  0
  -50.7901   -1.2402  -21.6815 C   0  0  0  0  0
  -49.5690   -0.6448  -21.3294 C   0  0  0  0  0
  -48.5336   -0.5584  -22.2642 C   0  0  0  0  0
  -51.9147   -1.3544  -20.6969 C   0  0  0  0  0
  -51.6127   -2.3945  -19.6084 C   0  0  0  0  0
  -50.8298   -1.7869  -18.4898 C   0  0  0  0  0
  -51.8245    0.4169  -19.0124 C   0  0  0  0  0
  -52.9626    2.6890  -19.2806 C   0  0  0  0  0
  -53.2272    4.0117  -18.6877 C   0  0  0  0  0
  -54.0079    4.9536  -19.3723 C   0  0  0  0  0
  -54.2625    6.2103  -18.8153 C   0  0  0  0  0
  -53.7284    6.5274  -17.5565 C   0  0  0  0  0
  -52.9481    5.6001  -16.8608 C   0  0  0  0  0
  -52.7006    4.3423  -17.4321 C   0  0  0  0  0
  -51.6309    5.0705  -14.8354 C   0  0  0  0  0
  -55.3541    8.4184  -19.0400 C   0  0  0  0  0
  -50.0445   -2.4945  -17.8081 O   0  0  0  0  0
  -53.4410    2.4029  -20.4123 O   0  0  0  0  0
  -52.4331    5.9514  -15.6101 O   0  0  0  0  0
  -55.0456    7.1207  -19.5301 O   0  0  0  0  0
  -50.9994   -0.4046  -18.1828 N   0  0  0  0  0
  -52.2701   -0.0392  -20.1482 N   0  0  0  0  0
  -52.1605    1.7364  -18.5673 N   0  0  0  0  0
  1  2  1  0  0  0
  3  4  1  0  0  0
  5  6  1  0  0  0
  7  2  1  0  0  0
  8  5  1  0  0  0
  8  9  1  0  0  0
  8 26  1  0  0  0
  9 10  1  0  0  0
 10 25  1  0  0  0
 11 27  1  0  0  0
 12 13  1  0  0  0
 14 15  1  0  0  0
 15 24  1  0  0  0
 16 17  1  0  0  0
 17 23  1  0  0  0
 18 13  1  0  0  0
 19 23  1  0  0  0
 20 24  1  0  0  0
 25 11  1  0  0  0
 27 12  1  0  0  0
  2  3  2  0  0  0
  4  5  2  0  0  0
  6  7  2  0  0  0
 10 21  2  0  0  0
 11 26  2  0  0  0
 12 22  2  0  0  0
 13 14  2  0  0  0
 15 16  2  0  0  0
 17 18  2  0  0  0
M  END
> <rmsd>
0.665077507

$$$$
ZINC000096181546


 24 26  0  0  0  0  0  0  0  0999 V2000
  -52.5965    5.0414  -14.7348 C   0  0  0  0  0
  -52.6780    4.2858  -16.0123 C   0  0  0  0  0
  -51.8775    3.2153  -16.3615 C   0  0  0  0  0
  -52.3706    2.9076  -17.6150 C   0  0  0  0  0
  -52.3683    1.5080  -19.7351 C   0  0  0  0  0
  -51.7779    0.3529  -20.4919 C   0  0  0  0  0
  -52.1540   -1.2562  -18.8687 C   0  0  0  0  0
  -50.6893   -1.4202  -18.6289 C   0  0  0  0  0
  -48.3783   -0.4892  -18.8990 C   0  0  0  0  0
  -50.2388    0.2841  -20.4169 C   0  0  0  0  0
  -49.6681   -0.2189  -21.7087 C   0  0  0  0  0
  -49.9286   -1.5221  -22.1595 C   0  0  0  0  0
  -49.3788   -1.9713  -23.3636 C   0  0  0  0  0
  -48.5667   -1.1220  -24.1207 C   0  0  0  0  0
  -47.9819   -1.5993  -25.4007 C   0  0  0  0  0
  -48.3033    0.1761  -23.6735 C   0  0  0  0  0
  -48.8526    0.6261  -22.4691 C   0  0  0  0  0
  -51.8728    1.8451  -18.4332 N   0  0  0  0  0
  -49.7796   -0.5341  -19.2901 N   0  0  0  0  0
  -53.3759    3.7316  -17.9664 N   0  0  0  0  0
  -53.3210    2.1518  -20.2490 O   0  0  0  0  0
  -52.4043   -0.8883  -20.2085 O   0  0  0  0  0
  -50.2729   -2.3112  -17.8417 O   0  0  0  0  0
  -53.5319    4.5507  -16.9714 O   0  0  0  0  0
  1  2  1  0  0  0
  2 24  1  0  0  0
  3  4  1  0  0  0
  4 18  1  0  0  0
  6  5  1  0  0  0
  6 22  1  0  0  0
  7 22  1  0  0  0
  7  8  1  0  0  0
  8 19  1  0  0  0
  9 19  1  0  0  0
 10 19  1  0  0  0
 10 11  1  0  0  0
 10  6  1  0  0  0
 12 13  1  0  0  0
 14 16  1  0  0  0
 15 14  1  0  0  0
 17 11  1  0  0  0
 18  5  1  0  0  0
 20 24  1  0  0  0
  2  3  2  0  0  0
  4 20  2  0  0  0
  5 21  2  0  0  0
  8 23  2  0  0  0
 11 12  2  0  0  0
 13 14  2  0  0  0
 16 17  2  0  0  0
M  END
> <rmsd>
0.501627564

$$$$
ZINC000096182881 ZINC96182881 PubChem-97458173


 26 28  0  0  0  0  0  0  0  0999 V2000
  -55.1358    5.6405  -17.7983 C   0  0  0  0  0
  -54.0218    4.7721  -17.3372 C   0  0  0  0  0
  -53.4459    4.9815  -16.0813 C   0  0  0  0  0
  -52.3982    4.1639  -15.6491 C   0  0  0  0  0
  -51.9267    3.1373  -16.4729 C   0  0  0  0  0
  -52.4978    2.9205  -17.7318 C   0  0  0  0  0
  -53.5495    3.7454  -18.1597 C   0  0  0  0  0
  -52.4436    1.4796  -19.8538 C   0  0  0  0  0
  -51.8016    0.3263  -20.5703 C   0  0  0  0  0
  -50.2646    0.3041  -20.4552 C   0  0  0  0  0
  -50.7227   -1.3508  -18.6156 C   0  0  0  0  0
  -52.1824   -1.2558  -18.9202 C   0  0  0  0  0
  -48.4181   -0.4085  -18.8949 C   0  0  0  0  0
  -49.6489   -0.1862  -21.7310 C   0  0  0  0  0
  -48.8385    0.6790  -22.4741 C   0  0  0  0  0
  -48.2480    0.2412  -23.6634 C   0  0  0  0  0
  -48.4652   -1.0646  -24.1129 C   0  0  0  0  0
  -49.2720   -1.9340  -23.3731 C   0  0  0  0  0
  -49.8626   -1.4971  -22.1840 C   0  0  0  0  0
  -51.7849    4.3857  -14.3139 C   0  0  0  0  0
  -51.9862    1.8582  -18.5470 N   0  0  0  0  0
  -49.8085   -0.4986  -19.3159 N   0  0  0  0  0
  -53.4027    2.0810  -20.4056 O   0  0  0  0  0
  -50.3197   -2.1270  -17.7090 O   0  0  0  0  0
  -52.3979   -0.9258  -20.2759 O   0  0  0  0  0
  -47.8928   -1.4878  -25.2652 F   0  0  0  0  0
  1  2  1  0  0  0
  3  4  1  0  0  0
  5  6  1  0  0  0
  6 21  1  0  0  0
  7  2  1  0  0  0
  9  8  1  0  0  0
  9 10  1  0  0  0
  9 25  1  0  0  0
 10 22  1  0  0  0
 10 14  1  0  0  0
 12 11  1  0  0  0
 12 25  1  0  0  0
 13 22  1  0  0  0
 15 16  1  0  0  0
 17 18  1  0  0  0
 17 26  1  0  0  0
 19 14  1  0  0  0
 20  4  1  0  0  0
 21  8  1  0  0  0
 22 11  1  0  0  0
  2  3  2  0  0  0
  4  5  2  0  0  0
  6  7  2  0  0  0
  8 23  2  0  0  0
 11 24  2  0  0  0
 14 15  2  0  0  0
 16 17  2  0  0  0
 18 19  2  0  0  0
M  END
> <rmsd>
0.44997701

$$$$
ZINC000011845161 MCULE-6424288385 MolPort-005-300-936


 27 28  0  0  0  0  0  0  0  0999 V2000
  -49.7133   -0.1229  -21.0252 C   0  0  0  0  0
  -50.2197    0.2510  -18.5819 C   0  0  0  0  0
  -51.2449   -0.7141  -17.9941 C   0  0  0  0  0
  -51.0203   -2.1353  -18.4818 C   0  0  0  0  0
  -49.7464   -3.9348  -18.4449 C   0  0  0  0  0
  -51.4614    1.0784  -20.6236 C   0  0  0  0  0
  -51.4124    0.9377  -22.0122 C   0  0  0  0  0
  -50.2883    0.1660  -22.2249 C   0  0  0  0  0
  -49.7259   -0.3013  -23.4025 C   0  0  0  0  0
  -47.9712   -1.5591  -24.5500 C   0  0  0  0  0
  -47.9974   -1.3208  -22.1067 C   0  0  0  0  0
  -47.8909   -1.0971  -19.6701 C   0  0  0  0  0
  -52.5076    1.8611  -19.9325 C   0  0  0  0  0
  -53.4184    2.9051  -17.8238 C   0  0  0  0  0
  -53.0493    2.9970  -16.3866 C   0  0  0  0  0
  -51.7262    4.0789  -14.6181 C   0  0  0  0  0
  -50.7239    5.2058  -14.4863 C   0  0  0  0  0
  -50.4310    0.4229  -20.0187 N   0  0  0  0  0
  -48.5818   -1.0506  -23.3253 N   0  0  0  0  0
  -48.5591   -0.8509  -20.9428 N   0  0  0  0  0
  -52.4095    2.1382  -18.5348 N   0  0  0  0  0
  -49.9119   -2.6890  -17.8415 O   0  0  0  0  0
  -46.9341   -2.0026  -22.0593 O   0  0  0  0  0
  -50.2611   -0.0384  -24.5150 O   0  0  0  0  0
  -53.4869    2.3054  -20.5916 O   0  0  0  0  0
  -52.1303    3.9617  -15.9737 O   0  0  0  0  0
  -53.5454    2.1812  -15.5637 O   0  0  0  0  0
  1 18  1  0  0  0
  2 18  1  0  0  0
  2  3  1  0  0  0
  3  4  1  0  0  0
  4 22  1  0  0  0
  5 22  1  0  0  0
  6 13  1  0  0  0
  7  8  1  0  0  0
  8  9  1  0  0  0
  9 19  1  0  0  0
 10 19  1  0  0  0
 11 20  1  0  0  0
 12 20  1  0  0  0
 13 21  1  0  0  0
 14 21  1  0  0  0
 14 15  1  0  0  0
 15 26  1  0  0  0
 16 26  1  0  0  0
 16 17  1  0  0  0
 18  6  1  0  0  0
 19 11  1  0  0  0
 20  1  1  0  0  0
  6  7  2  0  0  0
  8  1  2  0  0  0
  9 24  2  0  0  0
 11 23  2  0  0  0
 13 25  2  0  0  0
 15 27  2  0  0  0
M  END
> <rmsd>
0.600654483

$$$$
ZINC000011118389 ZINC11118389 PubChem-41826645


 27 29  0  0  0  0  0  0  0  0999 V2000
  -47.7970   -1.5509  -25.0610 C   0  0  0  0  0
  -48.4910   -0.2464  -24.7141 C   0  0  0  0  0
  -49.0905   -0.3163  -23.3510 C   0  0  0  0  0
  -50.4727   -0.2571  -23.2020 C   0  0  0  0  0
  -51.0372   -0.3039  -21.9293 C   0  0  0  0  0
  -50.2361   -0.4073  -20.7784 C   0  0  0  0  0
  -48.8202   -0.4607  -20.9232 C   0  0  0  0  0
  -48.2765   -0.4089  -22.2203 C   0  0  0  0  0
  -47.8753   -0.5522  -19.7673 C   0  0  0  0  0
  -46.4930   -0.4076  -19.9928 C   0  0  0  0  0
  -45.5762   -0.4948  -18.9431 C   0  0  0  0  0
  -46.0259   -0.7314  -17.6449 C   0  0  0  0  0
  -47.3908   -0.8801  -17.3993 C   0  0  0  0  0
  -48.3120   -0.7912  -18.4491 C   0  0  0  0  0
  -52.2923   -0.1379  -19.3195 C   0  0  0  0  0
  -52.5211    1.3290  -19.4563 C   0  0  0  0  0
  -52.0365    3.6772  -18.6406 C   0  0  0  0  0
  -51.1734    4.1821  -19.7811 C   0  0  0  0  0
  -51.5781    4.3276  -17.3493 C   0  0  0  0  0
  -51.8636    4.5331  -15.1719 C   0  0  0  0  0
  -50.0054   -0.9877  -18.1018 S   0  0  0  0  0
  -50.3155   -2.4334  -17.8351 O   0  0  0  0  0
  -50.3752   -0.1468  -16.9118 O   0  0  0  0  0
  -53.2494    1.7613  -20.3888 O   0  0  0  0  0
  -52.4621    4.0110  -16.3174 O   0  0  0  0  0
  -50.8751   -0.4469  -19.4873 N   0  0  0  0  0
  -51.9105    2.2309  -18.5310 N   0  0  0  0  0
  1  2  1  0  0  0
  2  3  1  0  0  0
  4  5  1  0  0  0
  6  7  1  0  0  0
  7  9  1  0  0  0
  8  3  1  0  0  0
 10 11  1  0  0  0
 12 13  1  0  0  0
 14  9  1  0  0  0
 15 26  1  0  0  0
 15 16  1  0  0  0
 16 27  1  0  0  0
 17 27  1  0  0  0
 17 18  1  0  0  0
 17 19  1  0  0  0
 19 25  1  0  0  0
 20 25  1  0  0  0
 21 14  1  0  0  0
 21 26  1  0  0  0
 26  6  1  0  0  0
  3  4  2  0  0  0
  5  6  2  0  0  0
  7  8  2  0  0  0
  9 10  2  0  0  0
 11 12  2  0  0  0
 13 14  2  0  0  0
 16 24  2  0  0  0
 21 22  2  0  0  0
 21 23  2  0  0  0
M  END
> <rmsd>
0.487705141

$$$$
ZINC000615451238 MolPort-044-610-126


 27 30  0  0  0  0  0  0  0  0999 V2000
  -48.5535    4.2912  -14.5730 C   0  0  0  0  0
  -49.8794    4.9637  -14.2755 C   0  0  0  0  0
  -50.9744    4.2982  -15.0351 C   0  0  0  0  0
  -52.1875    3.5849  -16.5741 C   0  0  0  0  0
  -52.7105    3.2212  -17.9178 C   0  0  0  0  0
  -52.3243    1.4414  -19.6641 C   0  0  0  0  0
  -51.5891    0.2226  -20.1144 C   0  0  0  0  0
  -51.8598   -0.9485  -19.1601 C   0  0  0  0  0
  -50.5195   -1.2774  -18.6369 C   0  0  0  0  0
  -48.0770   -0.5736  -18.8503 C   0  0  0  0  0
  -47.8274   -0.2386  -17.3902 C   0  0  0  0  0
  -47.5017    0.7771  -18.4602 C   0  0  0  0  0
  -50.0718    0.4852  -20.1159 C   0  0  0  0  0
  -49.4963    0.2758  -21.4852 C   0  0  0  0  0
  -49.4717   -0.8741  -22.2501 C   0  0  0  0  0
  -50.0220   -2.2118  -21.8829 C   0  0  0  0  0
  -48.6086   -1.5045  -24.5075 C   0  0  0  0  0
  -48.8673    1.2457  -22.2476 C   0  0  0  0  0
  -51.0450    4.2717  -16.3807 N   0  0  0  0  0
  -52.7705    3.2070  -15.4224 N   0  0  0  0  0
  -52.0051    3.6648  -14.4472 N   0  0  0  0  0
  -52.0386    2.0226  -18.3898 N   0  0  0  0  0
  -49.5007   -0.4437  -19.1530 N   0  0  0  0  0
  -48.8544   -0.5874  -23.4074 N   0  0  0  0  0
  -48.4877    0.6836  -23.4166 N   0  0  0  0  0
  -53.1943    1.9520  -20.4186 O   0  0  0  0  0
  -50.3000   -2.2086  -17.8181 O   0  0  0  0  0
  1  2  1  0  0  0
  2  3  1  0  0  0
  4 19  1  0  0  0
  5  4  1  0  0  0
  5 22  1  0  0  0
  7  6  1  0  0  0
  7  8  1  0  0  0
  8  9  1  0  0  0
  9 23  1  0  0  0
 10 23  1  0  0  0
 10 11  1  0  0  0
 11 12  1  0  0  0
 12 10  1  0  0  0
 13 23  1  0  0  0
 13 14  1  0  0  0
 13  7  1  0  0  0
 15 24  1  0  0  0
 16 15  1  0  0  0
 17 24  1  0  0  0
 18 14  1  0  0  0
 21 20  1  0  0  0
 21  3  1  0  0  0
 22  6  1  0  0  0
 24 25  1  0  0  0
  3 19  2  0  0  0
  4 20  2  0  0  0
  6 26  2  0  0  0
  9 27  2  0  0  0
 14 15  2  0  0  0
 18 25  2  0  0  0
M  END
> <rmsd>
0.526695371

$$$$
ZINC000020530889


 32 34  0  0  0  0  0  0  0  0999 V2000
  -48.0198   -1.5587  -25.8447 C   0  0  0  0  0
  -49.1972   -1.2908  -23.6779 C   0  0  0  0  0
  -48.0721   -0.6722  -23.1083 C   0  0  0  0  0
  -48.0876   -0.2400  -21.7846 C   0  0  0  0  0
  -49.2301   -0.4195  -21.0106 C   0  0  0  0  0
  -50.3681   -1.0313  -21.5528 C   0  0  0  0  0
  -51.5938   -1.2265  -20.7034 C   0  0  0  0  0
  -51.3805   -2.3071  -19.6335 C   0  0  0  0  0
  -50.7635   -1.7281  -18.4017 C   0  0  0  0  0
  -51.7710    0.4651  -18.9456 C   0  0  0  0  0
  -52.9509    2.7108  -19.2523 C   0  0  0  0  0
  -53.3331    3.9951  -18.6397 C   0  0  0  0  0
  -54.0567    4.9410  -19.3694 C   0  0  0  0  0
  -54.4246    6.1659  -18.7944 C   0  0  0  0  0
  -55.5533    6.9043  -20.8725 C   0  0  0  0  0
  -54.0659    6.4564  -17.4670 C   0  0  0  0  0
  -54.1918    8.1630  -15.6345 C   0  0  0  0  0
  -53.3309    5.5011  -16.7195 C   0  0  0  0  0
  -52.2235    4.8411  -14.6008 C   0  0  0  0  0
  -52.9759    4.2829  -17.3205 C   0  0  0  0  0
  -50.3637   -1.4757  -22.8903 C   0  0  0  0  0
  -51.7015   -2.5917  -24.6958 C   0  0  0  0  0
  -49.1599   -1.7181  -25.0104 O   0  0  0  0  0
  -50.0414   -2.4419  -17.6593 O   0  0  0  0  0
  -53.2791    2.4633  -20.4450 O   0  0  0  0  0
  -55.1497    7.1137  -19.5258 O   0  0  0  0  0
  -54.4647    7.7006  -16.9494 O   0  0  0  0  0
  -52.9593    5.7620  -15.3955 O   0  0  0  0  0
  -51.5324   -2.0863  -23.3794 O   0  0  0  0  0
  -51.0216   -0.3684  -18.0581 N   0  0  0  0  0
  -52.2060    1.7509  -18.4882 N   0  0  0  0  0
  -52.0597    0.0497  -20.1458 N   0  0  0  0  0
  1 23  1  0  0  0
  2 23  1  0  0  0
  3  4  1  0  0  0
  5  6  1  0  0  0
  7  6  1  0  0  0
  7  8  1  0  0  0
  7 32  1  0  0  0
  8  9  1  0  0  0
  9 30  1  0  0  0
 10 31  1  0  0  0
 11 12  1  0  0  0
 13 14  1  0  0  0
 14 26  1  0  0  0
 15 26  1  0  0  0
 16 27  1  0  0  0
 16 18  1  0  0  0
 17 27  1  0  0  0
 18 28  1  0  0  0
 19 28  1  0  0  0
 20 12  1  0  0  0
 21 29  1  0  0  0
 21  2  1  0  0  0
 22 29  1  0  0  0
 30 10  1  0  0  0
 31 11  1  0  0  0
  2  3  2  0  0  0
  4  5  2  0  0  0
  6 21  2  0  0  0
  9 24  2  0  0  0
 10 32  2  0  0  0
 11 25  2  0  0  0
 12 13  2  0  0  0
 14 16  2  0  0  0
 18 20  2  0  0  0
M  END
> <rmsd>
0.546922207

$$$$
ZINC000020530889


 32 34  0  0  0  0  0  0  0  0999 V2000
  -47.9647   -1.6210  -25.8175 C   0  0  0  0  0
  -49.1650   -1.2982  -23.6738 C   0  0  0  0  0
  -48.0518   -0.6788  -23.0871 C   0  0  0  0  0
  -48.1037   -0.2320  -21.7705 C   0  0  0  0  0
  -49.2673   -0.4040  -21.0264 C   0  0  0  0  0
  -50.3986   -1.0172  -21.5862 C   0  0  0  0  0
  -51.6077   -1.2137  -20.7127 C   0  0  0  0  0
  -51.3788   -2.2976  -19.6491 C   0  0  0  0  0
  -50.7614   -1.7209  -18.4164 C   0  0  0  0  0
  -51.7773    0.4720  -18.9481 C   0  0  0  0  0
  -52.9614    2.7172  -19.2419 C   0  0  0  0  0
  -53.3411    3.9998  -18.6238 C   0  0  0  0  0
  -52.9767    4.2844  -17.3086 C   0  0  0  0  0
  -53.3280    5.4992  -16.7020 C   0  0  0  0  0
  -52.2026    4.8231  -14.5963 C   0  0  0  0  0
  -54.0696    6.4620  -17.4379 C   0  0  0  0  0
  -54.1597    8.1406  -15.5693 C   0  0  0  0  0
  -54.4391    6.1679  -18.7782 C   0  0  0  0  0
  -55.6413    8.3257  -19.2174 C   0  0  0  0  0
  -54.0694    4.9460  -19.3452 C   0  0  0  0  0
  -50.3507   -1.4679  -22.9358 C   0  0  0  0  0
  -52.7619   -2.1600  -23.1247 C   0  0  0  0  0
  -49.1183   -1.7515  -24.9974 O   0  0  0  0  0
  -50.0366   -2.4355  -17.6775 O   0  0  0  0  0
  -53.2964    2.4726  -20.4333 O   0  0  0  0  0
  -52.9446    5.7497  -15.3790 O   0  0  0  0  0
  -54.4519    7.6976  -16.8870 O   0  0  0  0  0
  -55.1704    7.0412  -19.5993 O   0  0  0  0  0
  -51.4250   -2.0896  -23.5982 O   0  0  0  0  0
  -51.0226   -0.3632  -18.0670 N   0  0  0  0  0
  -52.2113    1.7561  -18.4847 N   0  0  0  0  0
  -52.0704    0.0608  -20.1486 N   0  0  0  0  0
  1 23  1  0  0  0
  2 23  1  0  0  0
  3  4  1  0  0  0
  5  6  1  0  0  0
  7  6  1  0  0  0
  7  8  1  0  0  0
  7 32  1  0  0  0
  8  9  1  0  0  0
  9 30  1  0  0  0
 10 31  1  0  0  0
 11 12  1  0  0  0
 13 14  1  0  0  0
 14 26  1  0  0  0
 15 26  1  0  0  0
 16 27  1  0  0  0
 16 18  1  0  0  0
 17 27  1  0  0  0
 18 28  1  0  0  0
 19 28  1  0  0  0
 20 12  1  0  0  0
 21 29  1  0  0  0
 21  2  1  0  0  0
 22 29  1  0  0  0
 30 10  1  0  0  0
 31 11  1  0  0  0
  2  3  2  0  0  0
  4  5  2  0  0  0
  6 21  2  0  0  0
  9 24  2  0  0  0
 10 32  2  0  0  0
 11 25  2  0  0  0
 12 13  2  0  0  0
 14 16  2  0  0  0
 18 20  2  0  0  0
M  END
> <rmsd>
0.546473026

$$$$
ZINC000096181878 ZINC96181878 PubChem-97457708


 22 23  0  0  0  0  0  0  0  0999 V2000
  -51.9085    5.1089  -15.5832 C   0  0  0  0  0
  -52.5867    3.7945  -15.2454 C   0  0  0  0  0
  -52.0491    2.6792  -16.1239 C   0  0  0  0  0
  -52.6233    2.7843  -17.5239 C   0  0  0  0  0
  -52.4504    1.5580  -19.7202 C   0  0  0  0  0
  -51.8838    0.4353  -20.5334 C   0  0  0  0  0
  -52.5532   -0.9051  -20.2219 C   0  0  0  0  0
  -52.1871   -1.4124  -18.8325 C   0  0  0  0  0
  -50.7075   -1.3830  -18.6150 C   0  0  0  0  0
  -50.3527    0.3590  -20.4304 C   0  0  0  0  0
  -49.7412   -0.1907  -21.6851 C   0  0  0  0  0
  -49.9562   -1.5202  -22.0790 C   0  0  0  0  0
  -49.3664   -2.0109  -23.2473 C   0  0  0  0  0
  -48.5584   -1.1768  -24.0253 C   0  0  0  0  0
  -48.3386    0.1472  -23.6344 C   0  0  0  0  0
  -48.9283    0.6385  -22.4657 C   0  0  0  0  0
  -48.5302   -0.1618  -18.7883 C   0  0  0  0  0
  -52.0874    1.7139  -18.3464 N   0  0  0  0  0
  -49.8929   -0.3817  -19.2494 N   0  0  0  0  0
  -53.2670    2.3534  -20.2566 O   0  0  0  0  0
  -50.1904   -2.2186  -17.8266 O   0  0  0  0  0
  -47.9869   -1.6521  -25.1576 F   0  0  0  0  0
  1  2  1  0  0  0
  2  3  1  0  0  0
  3  4  1  0  0  0
  4 18  1  0  0  0
  6  5  1  0  0  0
  6  7  1  0  0  0
  7  8  1  0  0  0
  8  9  1  0  0  0
  9 19  1  0  0  0
 10 19  1  0  0  0
 10 11  1  0  0  0
 10  6  1  0  0  0
 12 13  1  0  0  0
 14 15  1  0  0  0
 14 22  1  0  0  0
 16 11  1  0  0  0
 17 19  1  0  0  0
 18  5  1  0  0  0
  5 20  2  0  0  0
  9 21  2  0  0  0
 11 12  2  0  0  0
 13 14  2  0  0  0
 15 16  2  0  0  0
M  END
> <rmsd>
0.338205934

$$$$
ZINC000096182878 ZINC96182878 PubChem-97458170


 26 28  0  0  0  0  0  0  0  0999 V2000
  -55.1358    5.6405  -17.7983 C   0  0  0  0  0
  -54.0218    4.7721  -17.3372 C   0  0  0  0  0
  -53.4459    4.9814  -16.0814 C   0  0  0  0  0
  -52.3981    4.1639  -15.6491 C   0  0  0  0  0
  -51.9267    3.1373  -16.4729 C   0  0  0  0  0
  -52.4979    2.9205  -17.7318 C   0  0  0  0  0
  -53.5495    3.7454  -18.1596 C   0  0  0  0  0
  -52.4436    1.4796  -19.8538 C   0  0  0  0  0
  -51.8016    0.3263  -20.5702 C   0  0  0  0  0
  -50.2646    0.3040  -20.4552 C   0  0  0  0  0
  -50.7227   -1.3508  -18.6156 C   0  0  0  0  0
  -52.1824   -1.2559  -18.9201 C   0  0  0  0  0
  -48.4180   -0.4084  -18.8950 C   0  0  0  0  0
  -49.6489   -0.1861  -21.7310 C   0  0  0  0  0
  -48.8385    0.6790  -22.4740 C   0  0  0  0  0
  -48.2480    0.2412  -23.6634 C   0  0  0  0  0
  -48.4652   -1.0646  -24.1129 C   0  0  0  0  0
  -49.2719   -1.9339  -23.3731 C   0  0  0  0  0
  -49.8626   -1.4971  -22.1840 C   0  0  0  0  0
  -51.7850    4.3857  -14.3139 C   0  0  0  0  0
  -51.9861    1.8582  -18.5470 N   0  0  0  0  0
  -49.8086   -0.4985  -19.3159 N   0  0  0  0  0
  -53.4027    2.0810  -20.4055 O   0  0  0  0  0
  -50.3196   -2.1270  -17.7090 O   0  0  0  0  0
  -52.3979   -0.9258  -20.2759 O   0  0  0  0  0
  -47.8929   -1.4879  -25.2652 F   0  0  0  0  0
  1  2  1  0  0  0
  3  4  1  0  0  0
  5  6  1  0  0  0
  6 21  1  0  0  0
  7  2  1  0  0  0
  9  8  1  0  0  0
  9 10  1  0  0  0
  9 25  1  0  0  0
 10 22  1  0  0  0
 10 14  1  0  0  0
 12 11  1  0  0  0
 12 25  1  0  0  0
 13 22  1  0  0  0
 15 16  1  0  0  0
 17 18  1  0  0  0
 17 26  1  0  0  0
 19 14  1  0  0  0
 20  4  1  0  0  0
 21  8  1  0  0  0
 22 11  1  0  0  0
  2  3  2  0  0  0
  4  5  2  0  0  0
  6  7  2  0  0  0
  8 23  2  0  0  0
 11 24  2  0  0  0
 14 15  2  0  0  0
 16 17  2  0  0  0
 18 19  2  0  0  0
M  END
> <rmsd>
0.44997701

$$$$
ZINC000096182878 ZINC96182878 PubChem-97458170


 26 28  0  0  0  0  0  0  0  0999 V2000
  -51.7850    4.3857  -14.3140 C   0  0  0  0  0
  -52.3981    4.1639  -15.6491 C   0  0  0  0  0
  -53.4459    4.9814  -16.0813 C   0  0  0  0  0
  -54.0218    4.7722  -17.3372 C   0  0  0  0  0
  -53.5495    3.7454  -18.1597 C   0  0  0  0  0
  -52.4978    2.9206  -17.7318 C   0  0  0  0  0
  -51.9267    3.1373  -16.4729 C   0  0  0  0  0
  -52.4437    1.4796  -19.8538 C   0  0  0  0  0
  -51.8015    0.3263  -20.5703 C   0  0  0  0  0
  -50.2646    0.3040  -20.4552 C   0  0  0  0  0
  -50.7227   -1.3508  -18.6156 C   0  0  0  0  0
  -52.1823   -1.2558  -18.9201 C   0  0  0  0  0
  -48.4181   -0.4084  -18.8949 C   0  0  0  0  0
  -49.6490   -0.1862  -21.7310 C   0  0  0  0  0
  -48.8385    0.6790  -22.4741 C   0  0  0  0  0
  -48.2481    0.2412  -23.6635 C   0  0  0  0  0
  -48.4652   -1.0646  -24.1129 C   0  0  0  0  0
  -49.2719   -1.9339  -23.3731 C   0  0  0  0  0
  -49.8626   -1.4971  -22.1840 C   0  0  0  0  0
  -55.1358    5.6406  -17.7983 C   0  0  0  0  0
  -51.9862    1.8583  -18.5470 N   0  0  0  0  0
  -49.8085   -0.4986  -19.3159 N   0  0  0  0  0
  -53.4027    2.0809  -20.4055 O   0  0  0  0  0
  -50.3196   -2.1269  -17.7089 O   0  0  0  0  0
  -52.3979   -0.9258  -20.2758 O   0  0  0  0  0
  -47.8928   -1.4879  -25.2652 F   0  0  0  0  0
  1  2  1  0  0  0
  3  4  1  0  0  0
  5  6  1  0  0  0
  6 21  1  0  0  0
  7  2  1  0  0  0
  9  8  1  0  0  0
  9 10  1  0  0  0
  9 25  1  0  0  0
 10 22  1  0  0  0
 10 14  1  0  0  0
 12 11  1  0  0  0
 12 25  1  0  0  0
 13 22  1  0  0  0
 15 16  1  0  0  0
 17 18  1  0  0  0
 17 26  1  0  0  0
 19 14  1  0  0  0
 20  4  1  0  0  0
 21  8  1  0  0  0
 22 11  1  0  0  0
  2  3  2  0  0  0
  4  5  2  0  0  0
  6  7  2  0  0  0
  8 23  2  0  0  0
 11 24  2  0  0  0
 14 15  2  0  0  0
 16 17  2  0  0  0
 18 19  2  0  0  0
M  END
> <rmsd>
0.44997701

$$$$
ZINC000096182878 ZINC96182878 PubChem-97458170


 26 28  0  0  0  0  0  0  0  0999 V2000
  -55.1358    5.6405  -17.7983 C   0  0  0  0  0
  -54.0218    4.7721  -17.3372 C   0  0  0  0  0
  -53.4459    4.9814  -16.0813 C   0  0  0  0  0
  -52.3982    4.1640  -15.6491 C   0  0  0  0  0
  -51.9267    3.1374  -16.4729 C   0  0  0  0  0
  -52.4978    2.9205  -17.7319 C   0  0  0  0  0
  -53.5495    3.7454  -18.1597 C   0  0  0  0  0
  -52.4436    1.4796  -19.8538 C   0  0  0  0  0
  -51.8016    0.3263  -20.5702 C   0  0  0  0  0
  -50.2646    0.3041  -20.4552 C   0  0  0  0  0
  -50.7225   -1.3508  -18.6156 C   0  0  0  0  0
  -52.1823   -1.2559  -18.9201 C   0  0  0  0  0
  -48.4181   -0.4084  -18.8949 C   0  0  0  0  0
  -49.6489   -0.1862  -21.7310 C   0  0  0  0  0
  -49.8626   -1.4971  -22.1840 C   0  0  0  0  0
  -49.2719   -1.9340  -23.3731 C   0  0  0  0  0
  -48.4652   -1.0646  -24.1129 C   0  0  0  0  0
  -48.2481    0.2412  -23.6634 C   0  0  0  0  0
  -48.8385    0.6790  -22.4741 C   0  0  0  0  0
  -51.7850    4.3857  -14.3140 C   0  0  0  0  0
  -51.9862    1.8583  -18.5470 N   0  0  0  0  0
  -49.8086   -0.4985  -19.3159 N   0  0  0  0  0
  -53.4027    2.0809  -20.4055 O   0  0  0  0  0
  -50.3196   -2.1270  -17.7089 O   0  0  0  0  0
  -52.3979   -0.9259  -20.2758 O   0  0  0  0  0
  -47.8929   -1.4878  -25.2653 F   0  0  0  0  0
  1  2  1  0  0  0
  3  4  1  0  0  0
  5  6  1  0  0  0
  6 21  1  0  0  0
  7  2  1  0  0  0
  9  8  1  0  0  0
  9 10  1  0  0  0
  9 25  1  0  0  0
 10 22  1  0  0  0
 10 14  1  0  0  0
 12 11  1  0  0  0
 12 25  1  0  0  0
 13 22  1  0  0  0
 15 16  1  0  0  0
 17 18  1  0  0  0
 17 26  1  0  0  0
 19 14  1  0  0  0
 20  4  1  0  0  0
 21  8  1  0  0  0
 22 11  1  0  0  0
  2  3  2  0  0  0
  4  5  2  0  0  0
  6  7  2  0  0  0
  8 23  2  0  0  0
 11 24  2  0  0  0
 14 15  2  0  0  0
 16 17  2  0  0  0
 18 19  2  0  0  0
M  END
> <rmsd>
0.44997701

$$$$
ZINC000096182878 ZINC96182878 PubChem-97458170


 26 28  0  0  0  0  0  0  0  0999 V2000
  -51.7850    4.3858  -14.3140 C   0  0  0  0  0
  -52.3981    4.1639  -15.6492 C   0  0  0  0  0
  -53.4459    4.9815  -16.0813 C   0  0  0  0  0
  -54.0218    4.7721  -17.3372 C   0  0  0  0  0
  -53.5495    3.7454  -18.1598 C   0  0  0  0  0
  -52.4978    2.9205  -17.7318 C   0  0  0  0  0
  -51.9267    3.1373  -16.4729 C   0  0  0  0  0
  -52.4437    1.4796  -19.8538 C   0  0  0  0  0
  -51.8016    0.3263  -20.5702 C   0  0  0  0  0
  -50.2647    0.3041  -20.4552 C   0  0  0  0  0
  -50.7226   -1.3508  -18.6156 C   0  0  0  0  0
  -52.1823   -1.2558  -18.9201 C   0  0  0  0  0
  -48.4180   -0.4084  -18.8950 C   0  0  0  0  0
  -49.6490   -0.1862  -21.7310 C   0  0  0  0  0
  -49.8626   -1.4971  -22.1840 C   0  0  0  0  0
  -49.2719   -1.9339  -23.3731 C   0  0  0  0  0
  -48.4652   -1.0646  -24.1129 C   0  0  0  0  0
  -48.2480    0.2412  -23.6634 C   0  0  0  0  0
  -48.8385    0.6790  -22.4741 C   0  0  0  0  0
  -55.1358    5.6405  -17.7983 C   0  0  0  0  0
  -51.9862    1.8582  -18.5470 N   0  0  0  0  0
  -49.8085   -0.4986  -19.3159 N   0  0  0  0  0
  -53.4027    2.0809  -20.4054 O   0  0  0  0  0
  -50.3196   -2.1270  -17.7089 O   0  0  0  0  0
  -52.3979   -0.9258  -20.2758 O   0  0  0  0  0
  -47.8929   -1.4878  -25.2652 F   0  0  0  0  0
  1  2  1  0  0  0
  3  4  1  0  0  0
  5  6  1  0  0  0
  6 21  1  0  0  0
  7  2  1  0  0  0
  9  8  1  0  0  0
  9 10  1  0  0  0
  9 25  1  0  0  0
 10 22  1  0  0  0
 10 14  1  0  0  0
 12 11  1  0  0  0
 12 25  1  0  0  0
 13 22  1  0  0  0
 15 16  1  0  0  0
 17 18  1  0  0  0
 17 26  1  0  0  0
 19 14  1  0  0  0
 20  4  1  0  0  0
 21  8  1  0  0  0
 22 11  1  0  0  0
  2  3  2  0  0  0
  4  5  2  0  0  0
  6  7  2  0  0  0
  8 23  2  0  0  0
 11 24  2  0  0  0
 14 15  2  0  0  0
 16 17  2  0  0  0
 18 19  2  0  0  0
M  END
> <rmsd>
0.44997701

$$$$
ZINC000585168577 PubChem-110087557


 29 31  0  0  0  0  0  0  0  0999 V2000
  -47.3347   -1.7168  -19.1956 C   0  0  0  0  0
  -48.1773   -0.6609  -18.5082 C   0  0  0  0  0
  -50.0929    0.3101  -19.8865 C   0  0  0  0  0
  -51.6189    0.1172  -19.8500 C   0  0  0  0  0
  -51.9350   -0.9217  -18.7696 C   0  0  0  0  0
  -50.5950   -1.3709  -18.3427 C   0  0  0  0  0
  -52.3432    1.4092  -19.6100 C   0  0  0  0  0
  -51.1787    1.8679  -17.3946 C   0  0  0  0  0
  -51.3529    2.7803  -16.2274 C   0  0  0  0  0
  -50.6589    3.9953  -16.2090 C   0  0  0  0  0
  -50.8074    4.8754  -15.1338 C   0  0  0  0  0
  -51.6527    4.5449  -14.0720 C   0  0  0  0  0
  -52.3540    3.3361  -14.0868 C   0  0  0  0  0
  -52.2170    2.4533  -15.1637 C   0  0  0  0  0
  -52.9713    1.1642  -15.1384 C   0  0  0  0  0
  -52.8030   -1.0329  -15.0688 C   0  0  0  0  0
  -49.5632    0.1742  -21.2809 C   0  0  0  0  0
  -48.9031    1.2580  -21.8678 C   0  0  0  0  0
  -48.3984    1.1539  -23.1674 C   0  0  0  0  0
  -48.5482   -0.0334  -23.8918 C   0  0  0  0  0
  -49.2102   -1.1223  -23.3013 C   0  0  0  0  0
  -49.7150   -1.0190  -22.0026 C   0  0  0  0  0
  -48.1422   -1.2683  -25.9963 C   0  0  0  0  0
  -49.5398   -0.7121  -19.0156 N   0  0  0  0  0
  -52.1462    2.1965  -18.4297 N   0  0  0  0  0
  -50.4048   -2.2390  -17.4506 O   0  0  0  0  0
  -53.1657    1.8053  -20.4755 O   0  0  0  0  0
  -52.1352    0.1352  -14.7050 O   0  0  0  0  0
  -48.0321   -0.1041  -25.1884 O   0  0  0  0  0
  1  2  1  0  0  0
  2 24  1  0  0  0
  3 24  1  0  0  0
  3  4  1  0  0  0
  3 17  1  0  0  0
  4  5  1  0  0  0
  4  7  1  0  0  0
  5  6  1  0  0  0
  6 24  1  0  0  0
  7 25  1  0  0  0
  8 25  1  0  0  0
  8  9  1  0  0  0
 10 11  1  0  0  0
 12 13  1  0  0  0
 14  9  1  0  0  0
 15 14  1  0  0  0
 15 28  1  0  0  0
 16 28  1  0  0  0
 18 19  1  0  0  0
 20 21  1  0  0  0
 20 29  1  0  0  0
 22 17  1  0  0  0
 23 29  1  0  0  0
  6 26  2  0  0  0
  7 27  2  0  0  0
  9 10  2  0  0  0
 11 12  2  0  0  0
 13 14  2  0  0  0
 17 18  2  0  0  0
 19 20  2  0  0  0
 21 22  2  0  0  0
M  END
> <rmsd>
0.60888356

$$$$
ZINC000225948475


 26 27  0  0  0  0  0  0  0  0999 V2000
  -55.7524    7.0335  -16.5877 C   0  0  0  0  0
  -54.7080    6.2110  -15.9223 C   0  0  0  0  0
  -53.0510    4.9974  -15.5749 C   0  0  0  0  0
  -52.5383    2.4595  -15.9864 C   0  0  0  0  0
  -53.0984    2.3348  -17.3924 C   0  0  0  0  0
  -52.2616    1.9251  -19.7332 C   0  0  0  0  0
  -51.1236    1.6343  -20.6494 C   0  0  0  0  0
  -50.8556    0.1362  -20.7113 C   0  0  0  0  0
  -52.7524   -1.4376  -18.6594 C   0  0  0  0  0
  -49.9884   -0.1964  -21.8842 C   0  0  0  0  0
  -48.6779    0.2963  -21.9815 C   0  0  0  0  0
  -47.8841   -0.0340  -23.0836 C   0  0  0  0  0
  -48.3950   -0.8575  -24.0909 C   0  0  0  0  0
  -49.6994   -1.3515  -23.9965 C   0  0  0  0  0
  -50.4941   -1.0216  -22.8947 C   0  0  0  0  0
  -54.6591    6.0038  -14.5945 N   0  0  0  0  0
  -53.6074    5.2346  -14.3739 N   0  0  0  0  0
  -52.0202    2.0874  -18.3358 N   0  0  0  0  0
  -50.2281   -0.3153  -19.4754 N   0  0  0  0  0
  -53.7106    5.5957  -16.5852 N   0  0  0  0  0
  -51.5845    3.9997  -15.8054 S   0  0  0  0  0
  -51.0296   -1.7628  -18.9615 S   0  0  0  0  0
  -53.4323    1.9919  -20.1942 O   0  0  0  0  0
  -50.8979   -2.8231  -20.0186 O   0  0  0  0  0
  -50.3946   -2.2513  -17.6909 O   0  0  0  0  0
  -47.4010   -1.2713  -25.4706 Cl  0  0  0  0  0
  1  2  1  0  0  0
  2 20  1  0  0  0
  3 21  1  0  0  0
  4 21  1  0  0  0
  4  5  1  0  0  0
  5 18  1  0  0  0
  7  6  1  0  0  0
  8  7  1  0  0  0
  8 19  1  0  0  0
  8 10  1  0  0  0
 11 12  1  0  0  0
 13 26  1  0  0  0
 13 14  1  0  0  0
 15 10  1  0  0  0
 17 16  1  0  0  0
 17  3  1  0  0  0
 18  6  1  0  0  0
 22 19  1  0  0  0
 22  9  1  0  0  0
  2 16  2  0  0  0
  3 20  2  0  0  0
  6 23  2  0  0  0
 10 11  2  0  0  0
 12 13  2  0  0  0
 14 15  2  0  0  0
 22 24  2  0  0  0
 22 25  2  0  0  0
M  END
> <rmsd>
0.572064877

$$$$
ZINC000004686535 ZINC04686535 PubChem-92227604


 27 29  0  0  0  0  0  0  0  0999 V2000
  -52.1450    4.9381  -14.4682 C   0  0  0  0  0
  -52.7235    4.5896  -15.8285 C   0  0  0  0  0
  -54.2513    4.5893  -15.7816 C   0  0  0  0  0
  -54.8175    4.3152  -17.1732 C   0  0  0  0  0
  -54.3017    2.9817  -17.7089 C   0  0  0  0  0
  -52.7699    2.9881  -17.7553 C   0  0  0  0  0
  -52.1775    3.2563  -16.3637 C   0  0  0  0  0
  -52.4460    2.0968  -15.4024 C   0  0  0  0  0
  -52.4398    1.3435  -19.6625 C   0  0  0  0  0
  -51.9606   -0.0101  -20.1217 C   0  0  0  0  0
  -53.0436   -1.0594  -19.8187 C   0  0  0  0  0
  -52.4761   -2.0407  -18.7875 C   0  0  0  0  0
  -51.0939   -1.5679  -18.5945 C   0  0  0  0  0
  -49.5243    0.3104  -19.3023 C   0  0  0  0  0
  -48.3599   -0.5408  -19.7966 C   0  0  0  0  0
  -48.4184   -0.7412  -21.2735 C   0  0  0  0  0
  -48.2308    0.3388  -22.1457 C   0  0  0  0  0
  -48.2863    0.1397  -23.5283 C   0  0  0  0  0
  -48.5256   -1.1389  -24.0411 C   0  0  0  0  0
  -48.7046   -2.2193  -23.1719 C   0  0  0  0  0
  -48.6490   -2.0210  -21.7892 C   0  0  0  0  0
  -51.6626   -0.0197  -21.6148 C   0  0  0  0  0
  -52.2651    1.7325  -18.2959 N   0  0  0  0  0
  -50.7825   -0.4309  -19.3742 N   0  0  0  0  0
  -53.0496    2.1072  -20.4614 O   0  0  0  0  0
  -50.2748   -2.1096  -17.8064 O   0  0  0  0  0
  -48.5974   -1.3876  -25.7718 Cl  0  0  0  0  0
  2  1  1  0  0  0
  2  3  1  0  0  0
  3  4  1  0  0  0
  4  5  1  0  0  0
  5  6  1  0  0  0
  6  7  1  0  0  0
  6 23  1  0  0  0
  7  8  1  0  0  0
  7  2  1  0  0  0
 10  9  1  0  0  0
 10 11  1  0  0  0
 10 22  1  0  0  0
 10 24  1  0  0  0
 11 12  1  0  0  0
 12 13  1  0  0  0
 13 24  1  0  0  0
 14 24  1  0  0  0
 14 15  1  0  0  0
 15 16  1  0  0  0
 17 18  1  0  0  0
 19 20  1  0  0  0
 19 27  1  0  0  0
 21 16  1  0  0  0
 23  9  1  0  0  0
  9 25  2  0  0  0
 13 26  2  0  0  0
 16 17  2  0  0  0
 18 19  2  0  0  0
 20 21  2  0  0  0
M  END
> <rmsd>
0.644026995

$$$$
ZINC000010299713 PubChem-124341967


 29 30  0  0  0  0  0  0  0  0999 V2000
  -52.2770    4.8433  -15.1281 C   0  0  0  0  0
  -52.1881    4.6598  -17.3244 C   0  0  0  0  0
  -52.5946    3.8503  -18.5410 C   0  0  0  0  0
  -52.4165    1.4786  -19.3748 C   0  0  0  0  0
  -51.9431    0.0822  -19.1595 C   0  0  0  0  0
  -50.0308   -0.2778  -20.7608 C   0  0  0  0  0
  -48.6638   -0.1884  -21.0643 C   0  0  0  0  0
  -48.2014   -0.4531  -22.3550 C   0  0  0  0  0
  -49.0985   -0.8106  -23.3642 C   0  0  0  0  0
  -48.5720   -1.0862  -24.7305 C   0  0  0  0  0
  -50.4705   -0.9026  -23.0759 C   0  0  0  0  0
  -50.9258   -0.6372  -21.7813 C   0  0  0  0  0
  -48.2813   -1.0787  -17.9787 C   0  0  0  0  0
  -46.9076   -0.8132  -17.9340 C   0  0  0  0  0
  -45.9880   -1.8602  -17.8478 C   0  0  0  0  0
  -44.5319   -1.5679  -17.8018 C   0  0  0  0  0
  -46.4367   -3.1813  -17.8069 C   0  0  0  0  0
  -47.8056   -3.4548  -17.8510 C   0  0  0  0  0
  -48.7395   -2.4086  -17.9366 C   0  0  0  0  0
  -50.6482   -3.9874  -17.9573 C   0  0  0  0  0
  -52.9192    4.2449  -16.2110 O   0  0  0  0  0
  -52.9977    1.7809  -20.4509 O   0  0  0  0  0
  -48.6729    1.5508  -18.3398 O   0  0  0  0  0
  -50.1762    0.3711  -16.8140 O   0  0  0  0  0
  -50.1137   -2.6711  -17.9814 O   0  0  0  0  0
  -52.1767    2.4679  -18.3746 N   0  0  0  0  0
  -50.5113   -0.0096  -19.4272 N   0  0  0  0  0
  -51.6434   -1.3459  -24.3064 Cl  0  0  0  0  0
  -49.4132    0.2636  -18.1050 S   0  0  0  0  0
  1 21  1  0  0  0
  2 21  1  0  0  0
  2  3  1  0  0  0
  3 26  1  0  0  0
  5  4  1  0  0  0
  5 27  1  0  0  0
  7  8  1  0  0  0
  9 11  1  0  0  0
 10  9  1  0  0  0
 11 28  1  0  0  0
 12  6  1  0  0  0
 14 15  1  0  0  0
 16 15  1  0  0  0
 17 18  1  0  0  0
 19 25  1  0  0  0
 19 13  1  0  0  0
 20 25  1  0  0  0
 26  4  1  0  0  0
 27  6  1  0  0  0
 29 27  1  0  0  0
 29 13  1  0  0  0
  4 22  2  0  0  0
  6  7  2  0  0  0
  8  9  2  0  0  0
 11 12  2  0  0  0
 13 14  2  0  0  0
 15 17  2  0  0  0
 18 19  2  0  0  0
 29 23  2  0  0  0
 29 24  2  0  0  0
M  END
> <rmsd>
0.567520022

$$$$
ZINC000222958584 PubChem-100170263


 26 27  0  0  0  0  0  0  0  0999 V2000
  -48.8302    3.9369  -20.4530 C   0  0  0  0  0
  -50.0732    3.6018  -19.6533 C   0  0  0  0  0
  -50.7828    2.4026  -20.2632 C   0  0  0  0  0
  -52.1450    2.2213  -19.6650 C   0  0  0  0  0
  -51.5112    1.5289  -17.3032 C   0  0  0  0  0
  -51.2693    2.1125  -16.0492 C   0  0  0  0  0
  -50.4726    1.4488  -15.1132 C   0  0  0  0  0
  -49.9389    0.1916  -15.4073 C   0  0  0  0  0
  -50.2038   -0.4170  -16.6406 C   0  0  0  0  0
  -50.9894    0.2585  -17.5833 C   0  0  0  0  0
  -49.6697   -1.7569  -16.9317 C   0  0  0  0  0
  -48.2008   -3.6283  -16.2980 C   0  0  0  0  0
  -49.6034    0.4446  -21.2183 C   0  0  0  0  0
  -48.6253   -0.5488  -21.0503 C   0  0  0  0  0
  -48.2312   -1.3348  -22.1378 C   0  0  0  0  0
  -48.8065   -1.1352  -23.3953 C   0  0  0  0  0
  -49.7751   -0.1448  -23.5718 C   0  0  0  0  0
  -50.1722    0.6418  -22.4879 C   0  0  0  0  0
  -48.3804   -1.9736  -24.5449 C   0  0  0  0  0
  -47.9548   -0.7432  -19.7360 C   0  0  0  0  0
  -53.1435    2.2067  -20.4299 O   0  0  0  0  0
  -50.0178   -2.3610  -17.9842 O   0  0  0  0  0
  -48.7772   -2.3570  -16.0403 O   0  0  0  0  0
  -49.9884    1.2305  -20.1266 O   0  0  0  0  0
  -52.3553    2.1905  -18.2486 N   0  0  0  0  0
  -51.9218    3.6889  -15.6391 Cl  0  0  0  0  0
  1  2  1  0  0  0
  3  2  1  0  0  0
  3  4  1  0  0  0
  3 24  1  0  0  0
  4 25  1  0  0  0
  6  7  1  0  0  0
  6 26  1  0  0  0
  8  9  1  0  0  0
  9 11  1  0  0  0
 10  5  1  0  0  0
 11 23  1  0  0  0
 12 23  1  0  0  0
 13 24  1  0  0  0
 14 15  1  0  0  0
 16 17  1  0  0  0
 18 13  1  0  0  0
 19 16  1  0  0  0
 20 14  1  0  0  0
 25  5  1  0  0  0
  4 21  2  0  0  0
  5  6  2  0  0  0
  7  8  2  0  0  0
  9 10  2  0  0  0
 11 22  2  0  0  0
 13 14  2  0  0  0
 15 16  2  0  0  0
 17 18  2  0  0  0
M  END
> <rmsd>
0.583680034

$$$$
ZINC000072242289 ZINC72242289 PubChem-95740500


 24 26  0  0  0  0  0  0  0  0999 V2000
  -49.5121    5.3785  -14.8475 C   0  0  0  0  0
  -50.7022    4.6672  -15.3840 C   0  0  0  0  0
  -51.7460    4.1799  -14.6217 C   0  0  0  0  0
  -52.6190    3.5992  -15.5291 C   0  0  0  0  0
  -52.0332    3.7865  -16.7664 C   0  0  0  0  0
  -52.5941    3.3098  -18.0587 C   0  0  0  0  0
  -52.3337    1.3373  -19.6081 C   0  0  0  0  0
  -51.6847    0.0321  -19.9297 C   0  0  0  0  0
  -51.9867   -1.0071  -18.8418 C   0  0  0  0  0
  -50.6444   -1.4488  -18.4159 C   0  0  0  0  0
  -50.1548    0.1923  -20.0131 C   0  0  0  0  0
  -49.6671   -0.0277  -21.4127 C   0  0  0  0  0
  -49.8490   -1.2590  -22.0615 C   0  0  0  0  0
  -49.3855   -1.4390  -23.3679 C   0  0  0  0  0
  -48.7396   -0.3915  -24.0306 C   0  0  0  0  0
  -48.5571    0.8363  -23.3875 C   0  0  0  0  0
  -49.0203    1.0173  -22.0809 C   0  0  0  0  0
  -48.1990   -0.8573  -18.7255 C   0  0  0  0  0
  -50.8938    4.4197  -16.6541 O   0  0  0  0  0
  -53.1838    1.8167  -20.4047 O   0  0  0  0  0
  -50.4437   -2.3104  -17.5198 O   0  0  0  0  0
  -51.9908    2.0348  -18.4086 N   0  0  0  0  0
  -49.6012   -0.7940  -19.1045 N   0  0  0  0  0
  -48.2906   -0.5659  -25.2965 F   0  0  0  0  0
  1  2  1  0  0  0
  2 19  1  0  0  0
  3  4  1  0  0  0
  5 19  1  0  0  0
  6  5  1  0  0  0
  6 22  1  0  0  0
  8  7  1  0  0  0
  8  9  1  0  0  0
  9 10  1  0  0  0
 10 23  1  0  0  0
 11 23  1  0  0  0
 11 12  1  0  0  0
 11  8  1  0  0  0
 13 14  1  0  0  0
 15 16  1  0  0  0
 15 24  1  0  0  0
 17 12  1  0  0  0
 18 23  1  0  0  0
 22  7  1  0  0  0
  2  3  2  0  0  0
  4  5  2  0  0  0
  7 20  2  0  0  0
 10 21  2  0  0  0
 12 13  2  0  0  0
 14 15  2  0  0  0
 16 17  2  0  0  0
M  END
> <rmsd>
0.518419147

$$$$
ZINC000072242289 ZINC72242289 PubChem-95740500


 24 26  0  0  0  0  0  0  0  0999 V2000
  -52.1532    3.9530  -13.2260 C   0  0  0  0  0
  -51.8577    4.0505  -14.6796 C   0  0  0  0  0
  -50.7830    4.7231  -15.2278 C   0  0  0  0  0
  -50.9053    4.5490  -16.5980 C   0  0  0  0  0
  -52.0467    3.7884  -16.7663 C   0  0  0  0  0
  -52.5792    3.3222  -18.0745 C   0  0  0  0  0
  -52.3283    1.3365  -19.6081 C   0  0  0  0  0
  -51.6847    0.0264  -19.9205 C   0  0  0  0  0
  -51.9845   -1.0033  -18.8232 C   0  0  0  0  0
  -50.6415   -1.4543  -18.4089 C   0  0  0  0  0
  -50.1550    0.1811  -20.0124 C   0  0  0  0  0
  -49.6758   -0.0353  -21.4155 C   0  0  0  0  0
  -49.0266    1.0093  -22.0820 C   0  0  0  0  0
  -48.5715    0.8322  -23.3920 C   0  0  0  0  0
  -48.7647   -0.3912  -24.0403 C   0  0  0  0  0
  -49.4130   -1.4384  -23.3793 C   0  0  0  0  0
  -49.8683   -1.2622  -22.0694 C   0  0  0  0  0
  -48.1949   -0.8813  -18.7424 C   0  0  0  0  0
  -52.5925    3.5014  -15.6124 O   0  0  0  0  0
  -53.1680    1.8190  -20.4137 O   0  0  0  0  0
  -50.4387   -2.3143  -17.5117 O   0  0  0  0  0
  -51.9908    2.0359  -18.4082 N   0  0  0  0  0
  -49.5997   -0.8099  -19.1099 N   0  0  0  0  0
  -48.3231   -0.5619  -25.3091 F   0  0  0  0  0
  1  2  1  0  0  0
  2 19  1  0  0  0
  3  4  1  0  0  0
  5 19  1  0  0  0
  6  5  1  0  0  0
  6 22  1  0  0  0
  8  7  1  0  0  0
  8  9  1  0  0  0
  9 10  1  0  0  0
 10 23  1  0  0  0
 11 23  1  0  0  0
 11 12  1  0  0  0
 11  8  1  0  0  0
 13 14  1  0  0  0
 15 16  1  0  0  0
 15 24  1  0  0  0
 17 12  1  0  0  0
 18 23  1  0  0  0
 22  7  1  0  0  0
  2  3  2  0  0  0
  4  5  2  0  0  0
  7 20  2  0  0  0
 10 21  2  0  0  0
 12 13  2  0  0  0
 14 15  2  0  0  0
 16 17  2  0  0  0
M  END
> <rmsd>
0.51363951

$$$$
ZINC000096181260 ZINC96181260 PubChem-97457132


 25 27  0  0  0  0  0  0  0  0999 V2000
  -48.2336   -0.6530  -25.4162 C   0  0  0  0  0
  -48.7287   -0.4406  -24.0313 C   0  0  0  0  0
  -48.6050    0.8154  -23.4300 C   0  0  0  0  0
  -49.0704    1.0163  -22.1270 C   0  0  0  0  0
  -49.6594   -0.0375  -21.4201 C   0  0  0  0  0
  -49.7848   -1.2964  -22.0280 C   0  0  0  0  0
  -49.3191   -1.4963  -23.3307 C   0  0  0  0  0
  -50.1572    0.2063  -20.0281 C   0  0  0  0  0
  -51.6861    0.0332  -19.9536 C   0  0  0  0  0
  -51.9860   -1.0134  -18.8722 C   0  0  0  0  0
  -50.6429   -1.4275  -18.4216 C   0  0  0  0  0
  -48.2071   -0.7778  -18.6832 C   0  0  0  0  0
  -52.3451    1.3323  -19.6282 C   0  0  0  0  0
  -52.6296    3.2919  -18.0661 C   0  0  0  0  0
  -52.0802    3.7672  -16.7650 C   0  0  0  0  0
  -52.7409    3.4355  -15.5769 C   0  0  0  0  0
  -52.2255    3.8532  -14.3465 C   0  0  0  0  0
  -51.0443    4.5991  -14.3003 C   0  0  0  0  0
  -50.3770    4.9258  -15.4843 C   0  0  0  0  0
  -50.8898    4.5096  -16.7170 C   0  0  0  0  0
  -50.4411   -2.2800  -17.5173 O   0  0  0  0  0
  -53.1836    1.8180  -20.4334 O   0  0  0  0  0
  -49.6008   -0.7564  -19.0962 N   0  0  0  0  0
  -52.0221    2.0188  -18.4170 N   0  0  0  0  0
  -50.2281    4.8293  -17.8572 F   0  0  0  0  0
  1  2  1  0  0  0
  3  4  1  0  0  0
  5  6  1  0  0  0
  7  2  1  0  0  0
  8  5  1  0  0  0
  8  9  1  0  0  0
  8 23  1  0  0  0
  9 10  1  0  0  0
  9 13  1  0  0  0
 10 11  1  0  0  0
 11 23  1  0  0  0
 12 23  1  0  0  0
 13 24  1  0  0  0
 14 24  1  0  0  0
 14 15  1  0  0  0
 16 17  1  0  0  0
 18 19  1  0  0  0
 20 25  1  0  0  0
 20 15  1  0  0  0
  2  3  2  0  0  0
  4  5  2  0  0  0
  6  7  2  0  0  0
 11 21  2  0  0  0
 13 22  2  0  0  0
 15 16  2  0  0  0
 17 18  2  0  0  0
 19 20  2  0  0  0
M  END
> <rmsd>
0.46028778

$$$$
ZINC000096181260 ZINC96181260 PubChem-97457132


 25 27  0  0  0  0  0  0  0  0999 V2000
  -48.2347   -0.6604  -25.4185 C   0  0  0  0  0
  -48.7292   -0.4458  -24.0338 C   0  0  0  0  0
  -49.3202   -1.5000  -23.3316 C   0  0  0  0  0
  -49.7852   -1.2982  -22.0289 C   0  0  0  0  0
  -49.6585   -0.0386  -21.4226 C   0  0  0  0  0
  -49.0690    1.0139  -22.1311 C   0  0  0  0  0
  -48.6042    0.8110  -23.4341 C   0  0  0  0  0
  -50.1555    0.2074  -20.0308 C   0  0  0  0  0
  -51.6845    0.0352  -19.9556 C   0  0  0  0  0
  -51.9847   -1.0116  -18.8742 C   0  0  0  0  0
  -50.6417   -1.4255  -18.4233 C   0  0  0  0  0
  -48.2056   -0.7769  -18.6856 C   0  0  0  0  0
  -52.3431    1.3343  -19.6294 C   0  0  0  0  0
  -52.6351    3.2876  -18.0607 C   0  0  0  0  0
  -52.0997    3.7528  -16.7502 C   0  0  0  0  0
  -50.9742    4.5839  -16.7229 C   0  0  0  0  0
  -50.4448    5.0094  -15.5011 C   0  0  0  0  0
  -51.0364    4.6004  -14.3026 C   0  0  0  0  0
  -52.1561    3.7637  -14.3253 C   0  0  0  0  0
  -52.6882    3.3360  -15.5458 C   0  0  0  0  0
  -50.4401   -2.2777  -17.5186 O   0  0  0  0  0
  -53.1822    1.8203  -20.4336 O   0  0  0  0  0
  -49.5995   -0.7548  -19.0980 N   0  0  0  0  0
  -52.0200    2.0198  -18.4175 N   0  0  0  0  0
  -53.7716    2.5200  -15.5519 F   0  0  0  0  0
  1  2  1  0  0  0
  3  4  1  0  0  0
  5  6  1  0  0  0
  7  2  1  0  0  0
  8  5  1  0  0  0
  8  9  1  0  0  0
  8 23  1  0  0  0
  9 10  1  0  0  0
  9 13  1  0  0  0
 10 11  1  0  0  0
 11 23  1  0  0  0
 12 23  1  0  0  0
 13 24  1  0  0  0
 14 24  1  0  0  0
 14 15  1  0  0  0
 16 17  1  0  0  0
 18 19  1  0  0  0
 20 25  1  0  0  0
 20 15  1  0  0  0
  2  3  2  0  0  0
  4  5  2  0  0  0
  6  7  2  0  0  0
 11 21  2  0  0  0
 13 22  2  0  0  0
 15 16  2  0  0  0
 17 18  2  0  0  0
 19 20  2  0  0  0
M  END
> <rmsd>
0.456800371

$$$$
ZINC000020135762 ZINC20135762 PubChem-92655563


 30 32  0  0  0  0  0  0  0  0999 V2000
  -47.4473   -1.3068  -25.5767 C   0  0  0  0  0
  -48.5104   -0.9557  -23.3712 C   0  0  0  0  0
  -48.3984   -0.4615  -22.0676 C   0  0  0  0  0
  -49.4707   -0.5686  -21.1779 C   0  0  0  0  0
  -50.6696   -1.1714  -21.5862 C   0  0  0  0  0
  -50.7829   -1.6693  -22.8880 C   0  0  0  0  0
  -49.7103   -1.5620  -23.7777 C   0  0  0  0  0
  -51.8326   -1.3074  -20.6500 C   0  0  0  0  0
  -51.5650   -2.3563  -19.5610 C   0  0  0  0  0
  -50.8354   -1.7533  -18.4046 C   0  0  0  0  0
  -51.8302    0.4462  -18.9448 C   0  0  0  0  0
  -52.9791    2.7099  -19.2363 C   0  0  0  0  0
  -53.2814    4.0234  -18.6411 C   0  0  0  0  0
  -54.0396    4.9626  -19.3439 C   0  0  0  0  0
  -54.3319    6.2151  -18.7852 C   0  0  0  0  0
  -53.8608    6.5407  -17.5017 C   0  0  0  0  0
  -53.0903    5.5923  -16.7817 C   0  0  0  0  0
  -52.8129    4.3461  -17.3655 C   0  0  0  0  0
  -51.8309    4.9755  -14.7360 C   0  0  0  0  0
  -53.7999    8.3102  -15.7265 C   0  0  0  0  0
  -55.6078    6.9119  -20.7912 C   0  0  0  0  0
  -47.4206   -0.8330  -24.2372 O   0  0  0  0  0
  -50.0715   -2.4604  -17.6984 O   0  0  0  0  0
  -53.4074    2.4314  -20.3897 O   0  0  0  0  0
  -52.6073    5.8878  -15.5015 O   0  0  0  0  0
  -54.1879    7.8113  -16.9985 O   0  0  0  0  0
  -55.0917    7.1562  -19.4896 O   0  0  0  0  0
  -51.0316   -0.3761  -18.0904 N   0  0  0  0  0
  -52.2238   -0.0019  -20.1029 N   0  0  0  0  0
  -52.1977    1.7574  -18.5002 N   0  0  0  0  0
  1 22  1  0  0  0
  2 22  1  0  0  0
  3  4  1  0  0  0
  5  6  1  0  0  0
  7  2  1  0  0  0
  8  5  1  0  0  0
  8  9  1  0  0  0
  8 29  1  0  0  0
  9 10  1  0  0  0
 10 28  1  0  0  0
 11 30  1  0  0  0
 12 13  1  0  0  0
 14 15  1  0  0  0
 15 27  1  0  0  0
 16 17  1  0  0  0
 16 26  1  0  0  0
 17 25  1  0  0  0
 18 13  1  0  0  0
 19 25  1  0  0  0
 20 26  1  0  0  0
 21 27  1  0  0  0
 28 11  1  0  0  0
 30 12  1  0  0  0
  2  3  2  0  0  0
  4  5  2  0  0  0
  6  7  2  0  0  0
 10 23  2  0  0  0
 11 29  2  0  0  0
 12 24  2  0  0  0
 13 14  2  0  0  0
 15 16  2  0  0  0
 17 18  2  0  0  0
M  END
> <rmsd>
0.618057728

$$$$
ZINC000006509149 ZINC06509149 PubChem-7987030


 29 31  0  0  0  0  0  0  0  0999 V2000
  -45.3988    0.7088  -18.9003 C   0  0  0  0  0
  -46.2023    0.5043  -17.6296 C   0  0  0  0  0
  -47.6885    0.5736  -17.9282 C   0  0  0  0  0
  -48.1531   -0.7057  -18.6051 C   0  0  0  0  0
  -50.1162    0.3839  -19.8795 C   0  0  0  0  0
  -51.6374    0.1464  -19.8712 C   0  0  0  0  0
  -51.9422   -0.9507  -18.8424 C   0  0  0  0  0
  -50.5995   -1.3524  -18.3765 C   0  0  0  0  0
  -52.3957    1.4095  -19.5868 C   0  0  0  0  0
  -51.3062    1.7803  -17.3141 C   0  0  0  0  0
  -51.2888    2.8311  -16.2624 C   0  0  0  0  0
  -50.3515    3.8677  -16.3268 C   0  0  0  0  0
  -50.3455    4.8669  -15.3487 C   0  0  0  0  0
  -51.2793    4.8325  -14.3085 C   0  0  0  0  0
  -52.2214    3.8007  -14.2476 C   0  0  0  0  0
  -52.2276    2.8013  -15.2255 C   0  0  0  0  0
  -49.5524    0.2216  -21.2580 C   0  0  0  0  0
  -49.6483   -0.9976  -21.9448 C   0  0  0  0  0
  -49.1081   -1.1241  -23.2272 C   0  0  0  0  0
  -48.4662   -0.0331  -23.8355 C   0  0  0  0  0
  -48.3726    1.1803  -23.1460 C   0  0  0  0  0
  -48.9127    1.3075  -21.8630 C   0  0  0  0  0
  -47.9646   -1.3203  -25.8872 C   0  0  0  0  0
  -49.5603   -0.5988  -18.9648 N   0  0  0  0  0
  -52.2142    2.1658  -18.3836 N   0  0  0  0  0
  -50.3966   -2.2590  -17.5267 O   0  0  0  0  0
  -53.2157    1.8226  -20.4466 O   0  0  0  0  0
  -47.9159   -0.1274  -25.1167 O   0  0  0  0  0
  -51.2715    6.0831  -13.0843 Cl  0  0  0  0  0
  1  2  1  0  0  0
  2  3  1  0  0  0
  3  4  1  0  0  0
  4 24  1  0  0  0
  5 24  1  0  0  0
  5  6  1  0  0  0
  5 17  1  0  0  0
  6  7  1  0  0  0
  6  9  1  0  0  0
  7  8  1  0  0  0
  8 24  1  0  0  0
  9 25  1  0  0  0
 10 25  1  0  0  0
 10 11  1  0  0  0
 12 13  1  0  0  0
 14 15  1  0  0  0
 14 29  1  0  0  0
 16 11  1  0  0  0
 18 19  1  0  0  0
 20 21  1  0  0  0
 20 28  1  0  0  0
 22 17  1  0  0  0
 23 28  1  0  0  0
  8 26  2  0  0  0
  9 27  2  0  0  0
 11 12  2  0  0  0
 13 14  2  0  0  0
 15 16  2  0  0  0
 17 18  2  0  0  0
 19 20  2  0  0  0
 21 22  2  0  0  0
M  END
> <rmsd>
0.601976931

$$$$
ZINC000006817944 PubChem-92315719


 28 30  0  0  0  0  0  0  0  0999 V2000
  -47.4463   -1.3056  -25.5798 C   0  0  0  0  0
  -48.5094   -0.9562  -23.3740 C   0  0  0  0  0
  -48.3973   -0.4632  -22.0700 C   0  0  0  0  0
  -49.4697   -0.5708  -21.1805 C   0  0  0  0  0
  -50.6689   -1.1728  -21.5894 C   0  0  0  0  0
  -50.7822   -1.6693  -22.8918 C   0  0  0  0  0
  -49.7095   -1.5615  -23.7812 C   0  0  0  0  0
  -51.8319   -1.3093  -20.6535 C   0  0  0  0  0
  -51.5648   -2.3594  -19.5656 C   0  0  0  0  0
  -50.8349   -1.7580  -18.4085 C   0  0  0  0  0
  -51.8289    0.4425  -18.9464 C   0  0  0  0  0
  -52.9774    2.7069  -19.2352 C   0  0  0  0  0
  -53.2792    4.0198  -18.6383 C   0  0  0  0  0
  -52.8082    4.3404  -17.3588 C   0  0  0  0  0
  -53.0893    5.5886  -16.7794 C   0  0  0  0  0
  -53.8518    6.5268  -17.4915 C   0  0  0  0  0
  -54.3238    6.2052  -18.7742 C   0  0  0  0  0
  -54.0395    4.9619  -19.3422 C   0  0  0  0  0
  -54.8915    8.7728  -17.5606 C   0  0  0  0  0
  -51.8443    5.0234  -14.7153 C   0  0  0  0  0
  -47.4194   -0.8330  -24.2399 O   0  0  0  0  0
  -50.0713   -2.4662  -17.7032 O   0  0  0  0  0
  -53.4059    2.4299  -20.3888 O   0  0  0  0  0
  -54.1276    7.7680  -16.9076 O   0  0  0  0  0
  -52.6220    5.9157  -15.5017 O   0  0  0  0  0
  -51.0306   -0.3811  -18.0928 N   0  0  0  0  0
  -52.2226   -0.0042  -20.1049 N   0  0  0  0  0
  -52.1959    1.7533  -18.5003 N   0  0  0  0  0
  1 21  1  0  0  0
  2 21  1  0  0  0
  3  4  1  0  0  0
  5  6  1  0  0  0
  7  2  1  0  0  0
  8  5  1  0  0  0
  8  9  1  0  0  0
  8 27  1  0  0  0
  9 10  1  0  0  0
 10 26  1  0  0  0
 11 28  1  0  0  0
 12 13  1  0  0  0
 14 15  1  0  0  0
 15 25  1  0  0  0
 16 17  1  0  0  0
 16 24  1  0  0  0
 18 13  1  0  0  0
 19 24  1  0  0  0
 20 25  1  0  0  0
 26 11  1  0  0  0
 28 12  1  0  0  0
  2  3  2  0  0  0
  4  5  2  0  0  0
  6  7  2  0  0  0
 10 22  2  0  0  0
 11 27  2  0  0  0
 12 23  2  0  0  0
 13 14  2  0  0  0
 15 16  2  0  0  0
 17 18  2  0  0  0
M  END
> <rmsd>
0.628174663

$$$$
ZINC000072242160 ZINC72242160 PubChem-95740374


 25 27  0  0  0  0  0  0  0  0999 V2000
  -52.7676    3.4515  -13.0933 C   0  0  0  0  0
  -52.1270    3.8490  -14.3738 C   0  0  0  0  0
  -50.9862    4.6576  -14.3637 C   0  0  0  0  0
  -50.3808    5.0283  -15.5685 C   0  0  0  0  0
  -50.9174    4.5919  -16.7838 C   0  0  0  0  0
  -52.0632    3.7888  -16.7952 C   0  0  0  0  0
  -52.6181    3.3020  -18.0867 C   0  0  0  0  0
  -52.3438    1.3266  -19.6309 C   0  0  0  0  0
  -51.6875    0.0239  -19.9472 C   0  0  0  0  0
  -51.9893   -1.0143  -18.8581 C   0  0  0  0  0
  -50.6468   -1.4471  -18.4237 C   0  0  0  0  0
  -48.2031   -0.8432  -18.7229 C   0  0  0  0  0
  -50.1580    0.1913  -20.0240 C   0  0  0  0  0
  -49.6627   -0.0315  -21.4204 C   0  0  0  0  0
  -49.8354   -1.2661  -22.0656 C   0  0  0  0  0
  -49.3649   -1.4486  -23.3691 C   0  0  0  0  0
  -48.7211   -0.4003  -24.0328 C   0  0  0  0  0
  -48.5477    0.8308  -23.3934 C   0  0  0  0  0
  -49.0180    1.0143  -22.0896 C   0  0  0  0  0
  -52.6635    3.4119  -15.5888 C   0  0  0  0  0
  -52.0068    2.0292  -18.4326 N   0  0  0  0  0
  -49.6036   -0.7888  -19.1092 N   0  0  0  0  0
  -53.1950    1.7992  -20.4302 O   0  0  0  0  0
  -50.4460   -2.3046  -17.5239 O   0  0  0  0  0
  -48.2653   -0.5771  -25.2959 F   0  0  0  0  0
  1  2  1  0  0  0
  3  4  1  0  0  0
  5  6  1  0  0  0
  7  6  1  0  0  0
  7 21  1  0  0  0
  9  8  1  0  0  0
  9 10  1  0  0  0
 10 11  1  0  0  0
 11 22  1  0  0  0
 12 22  1  0  0  0
 13 22  1  0  0  0
 13 14  1  0  0  0
 13  9  1  0  0  0
 15 16  1  0  0  0
 17 25  1  0  0  0
 17 18  1  0  0  0
 19 14  1  0  0  0
 20  2  1  0  0  0
 21  8  1  0  0  0
  2  3  2  0  0  0
  4  5  2  0  0  0
  6 20  2  0  0  0
  8 23  2  0  0  0
 11 24  2  0  0  0
 14 15  2  0  0  0
 16 17  2  0  0  0
 18 19  2  0  0  0
M  END
> <rmsd>
0.480828851

$$$$
ZINC000181041974 MolPort-044-576-750 PubChem-132290894


 24 26  0  0  0  0  0  0  0  0999 V2000
  -52.3461    3.5563  -15.5605 C   0  0  0  0  0
  -51.9784    2.1193  -15.7032 C   0  0  0  0  0
  -52.0347    1.4748  -16.9474 C   0  0  0  0  0
  -51.6702    0.1199  -17.0399 C   0  0  0  0  0
  -51.2287    0.0602  -14.7009 C   0  0  0  0  0
  -51.5755    1.4057  -14.5741 C   0  0  0  0  0
  -52.5582   -0.0071  -19.3932 C   0  0  0  0  0
  -52.6108    1.4890  -19.3586 C   0  0  0  0  0
  -51.0042   -1.7824  -18.5596 C   0  0  0  0  0
  -51.2242   -2.5642  -19.8123 C   0  0  0  0  0
  -50.4437   -2.5225  -22.1634 C   0  0  0  0  0
  -51.2668   -3.6058  -22.5113 C   0  0  0  0  0
  -51.2809   -4.0930  -23.8188 C   0  0  0  0  0
  -50.4730   -3.5029  -24.7912 C   0  0  0  0  0
  -49.6479   -2.4239  -24.4628 C   0  0  0  0  0
  -49.6302   -1.9288  -23.1451 C   0  0  0  0  0
  -48.7535   -0.7746  -22.7816 C   0  0  0  0  0
  -51.2816   -0.5468  -15.9162 N   0  0  0  0  0
  -51.7084   -0.5455  -18.3233 N   0  0  0  0  0
  -52.4354    2.1819  -18.1235 N   0  0  0  0  0
  -52.8731    2.1318  -20.4074 O   0  0  0  0  0
  -50.1453   -2.2009  -17.7382 O   0  0  0  0  0
  -50.4225   -2.0251  -20.8551 O   0  0  0  0  0
  -48.6510   -1.7177  -25.7264 Cl  0  0  0  0  0
  1  2  1  0  0  0
  3  4  1  0  0  0
  4 19  1  0  0  0
  5 18  1  0  0  0
  6  2  1  0  0  0
  7 19  1  0  0  0
  7  8  1  0  0  0
  8 20  1  0  0  0
 10  9  1  0  0  0
 10 23  1  0  0  0
 11 23  1  0  0  0
 12 13  1  0  0  0
 14 15  1  0  0  0
 15 24  1  0  0  0
 16 11  1  0  0  0
 17 16  1  0  0  0
 19  9  1  0  0  0
 20  3  1  0  0  0
  2  3  2  0  0  0
  4 18  2  0  0  0
  5  6  2  0  0  0
  8 21  2  0  0  0
  9 22  2  0  0  0
 11 12  2  0  0  0
 13 14  2  0  0  0
 15 16  2  0  0  0
M  END
> <rmsd>
0.646698534

$$$$
ZINC000035340400 PubChem-2311905


 30 32  0  0  0  0  0  0  0  0999 V2000
  -48.6119    6.4822  -15.4071 C   0  0  0  0  0
  -50.7248    5.2006  -15.2038 C   0  0  0  0  0
  -51.6696    4.5253  -14.3907 C   0  0  0  0  0
  -52.7894    3.9368  -14.9901 C   0  0  0  0  0
  -52.9825    3.9859  -16.3721 C   0  0  0  0  0
  -52.0657    4.6809  -17.1671 C   0  0  0  0  0
  -50.9433    5.2736  -16.5897 C   0  0  0  0  0
  -54.2141    3.4058  -16.9337 C   0  0  0  0  0
  -54.3663    2.8160  -18.1267 C   0  0  0  0  0
  -53.3097    2.4705  -19.0910 C   0  0  0  0  0
  -50.9111    1.8092  -19.5720 C   0  0  0  0  0
  -51.1048    0.3512  -19.9825 C   0  0  0  0  0
  -50.2331   -0.0277  -21.1552 C   0  0  0  0  0
  -50.8423   -0.5044  -22.3217 C   0  0  0  0  0
  -50.0665   -0.8493  -23.4324 C   0  0  0  0  0
  -48.6763   -0.7142  -23.3834 C   0  0  0  0  0
  -48.0615   -0.2302  -22.2255 C   0  0  0  0  0
  -48.8370    0.1148  -21.1150 C   0  0  0  0  0
  -49.6543   -0.6560  -18.2997 C   0  0  0  0  0
  -49.6084   -1.7025  -17.1849 C   0  0  0  0  0
  -51.3509   -2.8570  -18.0475 C   0  0  0  0  0
  -51.5110   -1.8857  -19.2188 C   0  0  0  0  0
  -50.4959    4.9437  -12.2199 C   0  0  0  0  0
  -49.5898    5.7935  -14.6388 O   0  0  0  0  0
  -53.6219    2.3168  -20.3018 O   0  0  0  0  0
  -49.9927   -2.9564  -17.6945 O   0  0  0  0  0
  -51.5566    4.4070  -12.9972 O   0  0  0  0  0
  -51.9677    2.2247  -18.6608 N   0  0  0  0  0
  -51.0229   -0.5595  -18.8267 N   0  0  0  0  0
  -47.9251   -1.0488  -24.4597 F   0  0  0  0  0
  1 24  1  0  0  0
  2 24  1  0  0  0
  3  4  1  0  0  0
  3 27  1  0  0  0
  5  6  1  0  0  0
  5  8  1  0  0  0
  7  2  1  0  0  0
  9 10  1  0  0  0
 10 28  1  0  0  0
 11 28  1  0  0  0
 12 11  1  0  0  0
 12 13  1  0  0  0
 12 29  1  0  0  0
 14 15  1  0  0  0
 16 17  1  0  0  0
 16 30  1  0  0  0
 18 13  1  0  0  0
 19 29  1  0  0  0
 19 20  1  0  0  0
 20 26  1  0  0  0
 21 26  1  0  0  0
 21 22  1  0  0  0
 22 29  1  0  0  0
 23 27  1  0  0  0
  2  3  2  0  0  0
  4  5  2  0  0  0
  6  7  2  0  0  0
  8  9  2  0  0  0
 10 25  2  0  0  0
 13 14  2  0  0  0
 15 16  2  0  0  0
 17 18  2  0  0  0
M  END
> <rmsd>
0.570868134

$$$$
ZINC000493967022


 32 35  0  0  0  0  0  0  0  0999 V2000
  -48.0379   -1.4177  -25.9695 C   0  0  0  0  0
  -48.5507   -0.0915  -23.9452 C   0  0  0  0  0
  -48.5016    1.1469  -23.2968 C   0  0  0  0  0
  -49.0125    1.2883  -22.0030 C   0  0  0  0  0
  -49.5749    0.1907  -21.3445 C   0  0  0  0  0
  -50.1210    0.3705  -19.9608 C   0  0  0  0  0
  -51.6458    0.1523  -19.9408 C   0  0  0  0  0
  -52.3491    1.4136  -19.5626 C   0  0  0  0  0
  -52.7462    3.2591  -17.8890 C   0  0  0  0  0
  -52.2294    3.6781  -16.5584 C   0  0  0  0  0
  -51.0825    4.6963  -15.0764 C   0  0  0  0  0
  -51.8716    3.7334  -14.4786 C   0  0  0  0  0
  -51.9235    3.4331  -13.0378 C   0  0  0  0  0
  -51.1472    4.1658  -12.1275 C   0  0  0  0  0
  -51.1988    3.8754  -10.7611 C   0  0  0  0  0
  -52.0262    2.8500  -10.2956 C   0  0  0  0  0
  -52.8024    2.1149  -11.1962 C   0  0  0  0  0
  -53.6503    1.0596  -10.7188 C   0  0  0  0  0
  -52.7512    2.4060  -12.5626 C   0  0  0  0  0
  -51.9460   -0.9583  -18.9247 C   0  0  0  0  0
  -50.6065   -1.3454  -18.4414 C   0  0  0  0  0
  -48.1860   -0.6072  -18.5889 C   0  0  0  0  0
  -49.6308   -1.0520  -21.9924 C   0  0  0  0  0
  -49.1207   -1.1927  -23.2856 C   0  0  0  0  0
  -48.0295   -0.2000  -25.2374 O   0  0  0  0  0
  -53.1802    1.9209  -20.3617 O   0  0  0  0  0
  -50.4069   -2.2296  -17.5672 O   0  0  0  0  0
  -52.0770    2.0388  -18.3062 N   0  0  0  0  0
  -51.3125    4.6528  -16.4018 N   0  0  0  0  0
  -54.3335    0.2081  -10.3337 N   0  0  0  0  0
  -52.5952    3.0825  -15.4077 N   0  0  0  0  0
  -49.5655   -0.6105  -19.0476 N   0  0  0  0  0
  1 25  1  0  0  0
  2 25  1  0  0  0
  3  4  1  0  0  0
  5 23  1  0  0  0
  6  5  1  0  0  0
  6  7  1  0  0  0
  6 32  1  0  0  0
  7  8  1  0  0  0
  7 20  1  0  0  0
  8 28  1  0  0  0
  9 28  1  0  0  0
  9 10  1  0  0  0
 11 29  1  0  0  0
 12 13  1  0  0  0
 12 31  1  0  0  0
 14 15  1  0  0  0
 16 17  1  0  0  0
 17 18  1  0  0  0
 19 13  1  0  0  0
 20 21  1  0  0  0
 21 32  1  0  0  0
 22 32  1  0  0  0
 24  2  1  0  0  0
 31 10  1  0  0  0
  2  3  2  0  0  0
  4  5  2  0  0  0
  8 26  2  0  0  0
 10 29  2  0  0  0
 11 12  2  0  0  0
 13 14  2  0  0  0
 15 16  2  0  0  0
 17 19  2  0  0  0
 21 27  2  0  0  0
 23 24  2  0  0  0
 18 30  3  0  0  0
M  END
> <rmsd>
0.53615129

$$$$
ZINC000253471122


 35 39  0  0  0  0  0  0  0  0999 V2000
  -53.3405    2.3034  -20.4503 O   0  0  0  0  0
  -50.1557   -2.8411  -17.2869 O   0  0  0  0  0
  -48.4307   -1.8024  -16.2241 O   0  0  0  0  0
  -48.1369    2.1324  -21.5361 O   0  0  0  0  0
  -47.7434    1.0197  -23.4288 O   0  0  0  0  0
  -51.0928   -1.3496  -22.8205 O   0  0  0  0  0
  -52.2362    2.0949  -19.8805 C   0  0  0  0  0
  -50.9859    2.0559  -20.6919 C   0  0  0  0  0
  -50.4936    0.6214  -20.8717 C   0  0  0  0  0
  -49.8801    0.0356  -19.6335 C   0  0  0  0  0
  -48.8010    0.6742  -18.9735 C   0  0  0  0  0
  -48.2437    0.1198  -17.8071 C   0  0  0  0  0
  -48.7936   -1.0695  -17.3365 C   0  0  0  0  0
  -49.8239   -1.6875  -17.9684 C   0  0  0  0  0
  -50.4019   -1.1685  -19.1238 C   0  0  0  0  0
  -49.2827   -2.9546  -16.1540 C   0  0  0  0  0
  -49.6288    0.4404  -22.0938 C   0  0  0  0  0
  -48.4794    1.2251  -22.3400 C   0  0  0  0  0
  -48.0371    0.0883  -24.3290 C   0  0  0  0  0
  -47.2215   -0.0749  -25.4531 C   0  0  0  0  0
  -47.5250   -1.0552  -26.4029 C   0  0  0  0  0
  -48.6442   -1.8768  -26.2316 C   0  0  0  0  0
  -49.4650   -1.7202  -25.1102 C   0  0  0  0  0
  -49.1676   -0.7389  -24.1553 C   0  0  0  0  0
  -49.9681   -0.5527  -23.0240 C   0  0  0  0  0
  -53.3452    1.9776  -17.6067 C   0  0  0  0  0
  -53.7161    3.4381  -17.3817 C   0  0  0  0  0
  -52.6752    4.1404  -16.5738 C   0  0  0  0  0
  -52.4527    3.7847  -15.2373 C   0  0  0  0  0
  -51.4781    4.4514  -14.4880 C   0  0  0  0  0
  -50.7256    5.4751  -15.0729 C   0  0  0  0  0
  -50.9501    5.8354  -16.4053 C   0  0  0  0  0
  -51.9260    5.1702  -17.1544 C   0  0  0  0  0
  -52.1759    1.8769  -18.4691 N   0  0  0  0  0
  -49.7787    6.1183  -14.3482 F   0  0  0  0  0
  7 34  1  0  0  0
  8  7  1  0  0  0
  9  8  1  0  0  0
  9 10  1  0  0  0
  9 17  1  0  0  0
 11 12  1  0  0  0
 13 14  1  0  0  0
 13  3  1  0  0  0
 14  2  1  0  0  0
 15 10  1  0  0  0
 16  2  1  0  0  0
 16  3  1  0  0  0
 17 18  1  0  0  0
 18  5  1  0  0  0
 19  5  1  0  0  0
 20 21  1  0  0  0
 22 23  1  0  0  0
 24 25  1  0  0  0
 24 19  1  0  0  0
 25  6  1  0  0  0
 26 34  1  0  0  0
 26 27  1  0  0  0
 27 28  1  0  0  0
 29 30  1  0  0  0
 31 35  1  0  0  0
 31 32  1  0  0  0
 33 28  1  0  0  0
  7  1  2  0  0  0
 10 11  2  0  0  0
 12 13  2  0  0  0
 14 15  2  0  0  0
 18  4  2  0  0  0
 19 20  2  0  0  0
 21 22  2  0  0  0
 23 24  2  0  0  0
 25 17  2  0  0  0
 28 29  2  0  0  0
 30 31  2  0  0  0
 32 33  2  0  0  0
M  END
> <rmsd>
0.570115805

$$$$
ZINC000006760457 MCULE-2101817835 MolPort-002-670-898


 30 32  0  0  0  0  0  0  0  0999 V2000
  -49.6041   -0.3579  -18.9290 C   0  0  0  0  0
  -49.8355    0.3748  -17.6380 C   0  0  0  0  0
  -51.2789    0.7122  -17.4804 C   0  0  0  0  0
  -53.2247    2.2218  -18.0733 C   0  0  0  0  0
  -53.5994    3.1526  -19.2159 C   0  0  0  0  0
  -53.5308    2.8639  -16.7171 C   0  0  0  0  0
  -52.7501    4.1504  -16.4694 C   0  0  0  0  0
  -53.5356    5.0353  -15.5252 C   0  0  0  0  0
  -51.4041    3.8366  -15.8456 C   0  0  0  0  0
  -49.7604   -1.7548  -18.9874 C   0  0  0  0  0
  -49.2538   -1.8001  -21.2634 C   0  0  0  0  0
  -49.0765   -0.3852  -21.2928 C   0  0  0  0  0
  -48.7288    0.2556  -22.5014 C   0  0  0  0  0
  -48.5705   -0.5378  -23.6353 C   0  0  0  0  0
  -48.7411   -1.8923  -23.6023 C   0  0  0  0  0
  -48.2333   -1.4318  -25.6257 C   0  0  0  0  0
  -48.2410   -0.2154  -24.9364 C   0  0  0  0  0
  -47.9515    1.1572  -25.4951 C   0  0  0  0  0
  -46.7655    1.7683  -24.7726 C   0  0  0  0  0
  -49.1600    2.0553  -25.3079 C   0  0  0  0  0
  -47.6270    1.0973  -26.9786 C   0  0  0  0  0
  -49.0838   -2.5638  -22.4324 C   0  0  0  0  0
  -49.2567    0.3361  -20.1022 C   0  0  0  0  0
  -49.0764    1.8246  -20.0783 C   0  0  0  0  0
  -52.0144   -0.0145  -16.7605 O   0  0  0  0  0
  -53.5127    2.4725  -20.4308 O   0  0  0  0  0
  -50.0723   -2.4035  -17.9532 O   0  0  0  0  0
  -49.5815   -2.4088  -20.1304 O   0  0  0  0  0
  -48.5382   -2.4096  -24.7883 O   0  0  0  0  0
  -51.8223    1.8372  -18.1738 N   0  0  0  0  0
  1 10  1  0  0  0
  2  1  1  0  0  0
  2  3  1  0  0  0
  3 30  1  0  0  0
  4 30  1  0  0  0
  4  5  1  0  0  0
  4  6  1  0  0  0
  5 26  1  0  0  0
  6  7  1  0  0  0
  7  8  1  0  0  0
  7  9  1  0  0  0
 10 28  1  0  0  0
 11 28  1  0  0  0
 12 13  1  0  0  0
 12 23  1  0  0  0
 14 15  1  0  0  0
 15 29  1  0  0  0
 16 29  1  0  0  0
 17 14  1  0  0  0
 18 17  1  0  0  0
 18 19  1  0  0  0
 18 20  1  0  0  0
 18 21  1  0  0  0
 22 11  1  0  0  0
 24 23  1  0  0  0
  3 25  2  0  0  0
 10 27  2  0  0  0
 11 12  2  0  0  0
 13 14  2  0  0  0
 15 22  2  0  0  0
 16 17  2  0  0  0
 23  1  2  0  0  0
M  END
> <rmsd>
0.653192401

$$$$
ZINC000006870764 PubChem-92318821


 30 32  0  0  0  0  0  0  0  0999 V2000
  -54.1705    8.1979  -15.7425 C   0  0  0  0  0
  -54.0382    6.4585  -17.5374 C   0  0  0  0  0
  -53.3028    5.5148  -16.7772 C   0  0  0  0  0
  -52.9500    4.2878  -17.3645 C   0  0  0  0  0
  -53.3111    3.9840  -18.6816 C   0  0  0  0  0
  -54.0364    4.9223  -19.4224 C   0  0  0  0  0
  -54.3943    6.1450  -18.8537 C   0  0  0  0  0
  -52.9311    2.6916  -19.2789 C   0  0  0  0  0
  -51.7556    0.4476  -18.9453 C   0  0  0  0  0
  -51.5930   -1.2712  -20.6738 C   0  0  0  0  0
  -51.3943   -2.3396  -19.5887 C   0  0  0  0  0
  -50.7726   -1.7479  -18.3645 C   0  0  0  0  0
  -50.3634   -1.0808  -21.5192 C   0  0  0  0  0
  -50.4039   -1.3897  -22.8937 C   0  0  0  0  0
  -49.2392   -1.1961  -23.6820 C   0  0  0  0  0
  -48.0732   -0.6980  -23.0778 C   0  0  0  0  0
  -48.0467   -0.3924  -21.7195 C   0  0  0  0  0
  -49.1869   -0.5819  -20.9446 C   0  0  0  0  0
  -48.1079   -1.3222  -25.8858 C   0  0  0  0  0
  -51.8330   -2.2343  -24.7752 C   0  0  0  0  0
  -52.1924    4.8853  -14.6515 C   0  0  0  0  0
  -54.4407    7.7106  -17.0489 O   0  0  0  0  0
  -53.2613    2.4298  -20.4679 O   0  0  0  0  0
  -50.0657   -2.4598  -17.6057 O   0  0  0  0  0
  -49.2441   -1.4965  -25.0493 O   0  0  0  0  0
  -51.6135   -1.8805  -23.4173 O   0  0  0  0  0
  -52.9297    5.7950  -15.4576 O   0  0  0  0  0
  -52.1855    1.7409  -18.5042 N   0  0  0  0  0
  -52.0633    0.0097  -20.1327 N   0  0  0  0  0
  -51.0064   -0.3765  -18.0486 N   0  0  0  0  0
  1 22  1  0  0  0
  2 22  1  0  0  0
  3  4  1  0  0  0
  3 27  1  0  0  0
  5  6  1  0  0  0
  5  8  1  0  0  0
  7  2  1  0  0  0
  8 28  1  0  0  0
 10 29  1  0  0  0
 10 11  1  0  0  0
 10 13  1  0  0  0
 11 12  1  0  0  0
 12 30  1  0  0  0
 14 15  1  0  0  0
 14 26  1  0  0  0
 15 25  1  0  0  0
 16 17  1  0  0  0
 18 13  1  0  0  0
 19 25  1  0  0  0
 20 26  1  0  0  0
 21 27  1  0  0  0
 28  9  1  0  0  0
 30  9  1  0  0  0
  2  3  2  0  0  0
  4  5  2  0  0  0
  6  7  2  0  0  0
  8 23  2  0  0  0
  9 29  2  0  0  0
 12 24  2  0  0  0
 13 14  2  0  0  0
 15 16  2  0  0  0
 17 18  2  0  0  0
M  END
> <rmsd>
0.545950472

$$$$
ZINC000020924276 ZINC20924276 PubChem-92705262


 27 29  0  0  0  0  0  0  0  0999 V2000
  -47.6127   -0.9761  -24.5478 C   0  0  0  0  0
  -48.7131   -1.0679  -23.5535 C   0  0  0  0  0
  -48.5342   -0.5587  -22.2642 C   0  0  0  0  0
  -49.5695   -0.6450  -21.3292 C   0  0  0  0  0
  -50.7907   -1.2403  -21.6812 C   0  0  0  0  0
  -50.9628   -1.7512  -22.9724 C   0  0  0  0  0
  -49.9268   -1.6647  -23.9074 C   0  0  0  0  0
  -51.9152   -1.3545  -20.6965 C   0  0  0  0  0
  -51.6132   -2.3945  -19.6081 C   0  0  0  0  0
  -50.8301   -1.7871  -18.4895 C   0  0  0  0  0
  -51.8248    0.4168  -19.0120 C   0  0  0  0  0
  -52.9624    2.6890  -19.2803 C   0  0  0  0  0
  -53.2271    4.0117  -18.6873 C   0  0  0  0  0
  -52.7010    4.3425  -17.4316 C   0  0  0  0  0
  -52.9489    5.6007  -16.8608 C   0  0  0  0  0
  -53.7291    6.5287  -17.5567 C   0  0  0  0  0
  -54.2617    6.2149  -18.8105 C   0  0  0  0  0
  -54.0072    4.9535  -19.3715 C   0  0  0  0  0
  -55.6161    6.9351  -20.7508 C   0  0  0  0  0
  -51.6324    5.0712  -14.8349 C   0  0  0  0  0
  -50.0448   -2.4947  -17.8079 O   0  0  0  0  0
  -53.4408    2.4031  -20.4119 O   0  0  0  0  0
  -55.0367    7.1695  -19.4746 O   0  0  0  0  0
  -52.4343    5.9521  -15.6099 O   0  0  0  0  0
  -50.9997   -0.4048  -18.1824 N   0  0  0  0  0
  -52.2705   -0.0393  -20.1479 N   0  0  0  0  0
  -52.1606    1.7363  -18.5668 N   0  0  0  0  0
  1  2  1  0  0  0
  3  4  1  0  0  0
  5  6  1  0  0  0
  7  2  1  0  0  0
  8  5  1  0  0  0
  8  9  1  0  0  0
  8 26  1  0  0  0
  9 10  1  0  0  0
 10 25  1  0  0  0
 11 27  1  0  0  0
 12 13  1  0  0  0
 14 15  1  0  0  0
 15 24  1  0  0  0
 16 17  1  0  0  0
 17 23  1  0  0  0
 18 13  1  0  0  0
 19 23  1  0  0  0
 20 24  1  0  0  0
 25 11  1  0  0  0
 27 12  1  0  0  0
  2  3  2  0  0  0
  4  5  2  0  0  0
  6  7  2  0  0  0
 10 21  2  0  0  0
 11 26  2  0  0  0
 12 22  2  0  0  0
 13 14  2  0  0  0
 15 16  2  0  0  0
 17 18  2  0  0  0
M  END
> <rmsd>
0.665202498

$$$$
ZINC000020924276 ZINC20924276 PubChem-92705262


 27 29  0  0  0  0  0  0  0  0999 V2000
  -47.6200   -0.9745  -24.5557 C   0  0  0  0  0
  -48.7184   -1.0670  -23.5592 C   0  0  0  0  0
  -48.5363   -0.5596  -22.2695 C   0  0  0  0  0
  -49.5695   -0.6468  -21.3323 C   0  0  0  0  0
  -50.7918   -1.2411  -21.6826 C   0  0  0  0  0
  -50.9670   -1.7501  -22.9741 C   0  0  0  0  0
  -49.9329   -1.6628  -23.9112 C   0  0  0  0  0
  -51.9144   -1.3553  -20.6958 C   0  0  0  0  0
  -51.6099   -2.3949  -19.6074 C   0  0  0  0  0
  -50.8276   -1.7865  -18.4889 C   0  0  0  0  0
  -51.8226    0.4171  -19.0126 C   0  0  0  0  0
  -52.9612    2.6888  -19.2814 C   0  0  0  0  0
  -53.2286    4.0104  -18.6875 C   0  0  0  0  0
  -54.0103    4.9513  -19.3715 C   0  0  0  0  0
  -54.2677    6.2116  -18.8097 C   0  0  0  0  0
  -53.7365    6.5256  -17.5553 C   0  0  0  0  0
  -52.9550    5.5984  -16.8596 C   0  0  0  0  0
  -52.7041    4.3413  -17.4313 C   0  0  0  0  0
  -51.6441    5.0679  -14.8304 C   0  0  0  0  0
  -55.6224    6.9307  -20.7502 C   0  0  0  0  0
  -50.0445   -2.4943  -17.8047 O   0  0  0  0  0
  -53.4376    2.4031  -20.4139 O   0  0  0  0  0
  -52.4425    5.9497  -15.6077 O   0  0  0  0  0
  -55.0447    7.1651  -19.4732 O   0  0  0  0  0
  -50.9965   -0.4038  -18.1833 N   0  0  0  0  0
  -52.2696   -0.0401  -20.1475 N   0  0  0  0  0
  -52.1589    1.7365  -18.5677 N   0  0  0  0  0
  1  2  1  0  0  0
  3  4  1  0  0  0
  5  6  1  0  0  0
  7  2  1  0  0  0
  8  5  1  0  0  0
  8  9  1  0  0  0
  8 26  1  0  0  0
  9 10  1  0  0  0
 10 25  1  0  0  0
 11 27  1  0  0  0
 12 13  1  0  0  0
 14 15  1  0  0  0
 15 24  1  0  0  0
 16 17  1  0  0  0
 17 23  1  0  0  0
 18 13  1  0  0  0
 19 23  1  0  0  0
 20 24  1  0  0  0
 25 11  1  0  0  0
 27 12  1  0  0  0
  2  3  2  0  0  0
  4  5  2  0  0  0
  6  7  2  0  0  0
 10 21  2  0  0  0
 11 26  2  0  0  0
 12 22  2  0  0  0
 13 14  2  0  0  0
 15 16  2  0  0  0
 17 18  2  0  0  0
M  END
> <rmsd>
0.66201669

$$$$
ZINC000020924276 ZINC20924276 PubChem-92705262


 27 29  0  0  0  0  0  0  0  0999 V2000
  -47.6118   -0.9761  -24.5478 C   0  0  0  0  0
  -48.7123   -1.0678  -23.5536 C   0  0  0  0  0
  -49.9259   -1.6647  -23.9077 C   0  0  0  0  0
  -50.9620   -1.7512  -22.9729 C   0  0  0  0  0
  -50.7902   -1.2402  -21.6816 C   0  0  0  0  0
  -49.5691   -0.6448  -21.3294 C   0  0  0  0  0
  -48.5336   -0.5584  -22.2644 C   0  0  0  0  0
  -51.9147   -1.3543  -20.6970 C   0  0  0  0  0
  -51.6128   -2.3944  -19.6086 C   0  0  0  0  0
  -50.8300   -1.7868  -18.4899 C   0  0  0  0  0
  -51.8246    0.4170  -19.0125 C   0  0  0  0  0
  -52.9626    2.6891  -19.2807 C   0  0  0  0  0
  -53.2272    4.0118  -18.6877 C   0  0  0  0  0
  -54.0080    4.9536  -19.3722 C   0  0  0  0  0
  -54.2626    6.2103  -18.8151 C   0  0  0  0  0
  -53.7285    6.5275  -17.5564 C   0  0  0  0  0
  -52.9480    5.6000  -16.8607 C   0  0  0  0  0
  -52.7005    4.3422  -17.4320 C   0  0  0  0  0
  -51.6310    5.0704  -14.8353 C   0  0  0  0  0
  -55.3542    8.4184  -19.0398 C   0  0  0  0  0
  -50.0444   -2.4944  -17.8083 O   0  0  0  0  0
  -53.4409    2.4031  -20.4123 O   0  0  0  0  0
  -52.4332    5.9513  -15.6100 O   0  0  0  0  0
  -55.0456    7.1208  -19.5299 O   0  0  0  0  0
  -50.9994   -0.4046  -18.1829 N   0  0  0  0  0
  -52.2701   -0.0391  -20.1485 N   0  0  0  0  0
  -52.1605    1.7364  -18.5673 N   0  0  0  0  0
  1  2  1  0  0  0
  3  4  1  0  0  0
  5  6  1  0  0  0
  7  2  1  0  0  0
  8  5  1  0  0  0
  8  9  1  0  0  0
  8 26  1  0  0  0
  9 10  1  0  0  0
 10 25  1  0  0  0
 11 27  1  0  0  0
 12 13  1  0  0  0
 14 15  1  0  0  0
 15 24  1  0  0  0
 16 17  1  0  0  0
 17 23  1  0  0  0
 18 13  1  0  0  0
 19 23  1  0  0  0
 20 24  1  0  0  0
 25 11  1  0  0  0
 27 12  1  0  0  0
  2  3  2  0  0  0
  4  5  2  0  0  0
  6  7  2  0  0  0
 10 21  2  0  0  0
 11 26  2  0  0  0
 12 22  2  0  0  0
 13 14  2  0  0  0
 15 16  2  0  0  0
 17 18  2  0  0  0
M  END
> <rmsd>
0.665144622

$$$$
ZINC000030726767 ZINC30726767 PubChem-37870901


 32 35  0  0  0  0  0  0  0  0999 V2000
  -51.8062    4.7395  -14.7373 C   0  0  0  0  0
  -51.2966    3.3147  -14.7846 C   0  0  0  0  0
  -51.2229    1.4450  -16.4063 C   0  0  0  0  0
  -50.5417    0.6113  -15.4929 C   0  0  0  0  0
  -50.2059   -0.6790  -15.8912 C   0  0  0  0  0
  -50.5294   -1.1454  -17.1284 C   0  0  0  0  0
  -51.2031   -0.3577  -18.0561 C   0  0  0  0  0
  -51.5453    0.9622  -17.6981 C   0  0  0  0  0
  -52.4550    1.6288  -20.0112 C   0  0  0  0  0
  -51.6575    0.6450  -20.8009 C   0  0  0  0  0
  -50.3862    1.3042  -21.3076 C   0  0  0  0  0
  -49.6742    0.4042  -22.2762 C   0  0  0  0  0
  -49.7214    0.6869  -23.6654 C   0  0  0  0  0
  -49.0169   -0.1700  -24.5230 C   0  0  0  0  0
  -48.3643   -1.2630  -24.0267 C   0  0  0  0  0
  -48.9398   -0.7266  -21.8158 C   0  0  0  0  0
  -48.8358   -1.0430  -20.3624 C   0  0  0  0  0
  -48.8350   -0.2783  -25.9048 C   0  0  0  0  0
  -49.2154    2.0031  -26.7739 C   0  0  0  0  0
  -47.1078   -3.2367  -24.9013 C   0  0  0  0  0
  -50.5648    1.8047  -24.1844 C   0  0  0  0  0
  -49.4381   -2.9016  -16.1257 C   0  0  0  0  0
  -49.4990   -1.7309  -15.1194 C   0  0  0  0  0
  -50.1662   -4.1037  -15.5583 C   0  0  0  0  0
  -51.5829    2.7517  -16.0575 O   0  0  0  0  0
  -53.2782    2.3633  -20.6163 O   0  0  0  0  0
  -49.2585    0.5925  -26.9112 O   0  0  0  0  0
  -50.1061   -2.4436  -17.3020 O   0  0  0  0  0
  -52.2578    1.8189  -18.6033 N   0  0  0  0  0
  -48.3127   -1.5510  -22.7045 N   0  0  0  0  0
  -47.8481   -1.9933  -25.0246 N   0  0  0  0  0
  -48.1347   -1.4062  -26.1781 N   0  0  0  0  0
  1  2  1  0  0  0
  2 25  1  0  0  0
  3 25  1  0  0  0
  4  5  1  0  0  0
  6  7  1  0  0  0
  6 28  1  0  0  0
  8 29  1  0  0  0
  8  3  1  0  0  0
 10  9  1  0  0  0
 10 11  1  0  0  0
 11 12  1  0  0  0
 13 14  1  0  0  0
 15 30  1  0  0  0
 15 31  1  0  0  0
 16 12  1  0  0  0
 17 16  1  0  0  0
 18 27  1  0  0  0
 18 14  1  0  0  0
 19 27  1  0  0  0
 20 31  1  0  0  0
 21 13  1  0  0  0
 22 28  1  0  0  0
 22 23  1  0  0  0
 22 24  1  0  0  0
 23  5  1  0  0  0
 29  9  1  0  0  0
 31 32  1  0  0  0
  3  4  2  0  0  0
  5  6  2  0  0  0
  7  8  2  0  0  0
  9 26  2  0  0  0
 12 13  2  0  0  0
 14 15  2  0  0  0
 16 30  2  0  0  0
 18 32  2  0  0  0
M  END
> <rmsd>
0.405440301

$$$$
ZINC000096181682 ZINC96181682 PubChem-97457512


 25 27  0  0  0  0  0  0  0  0999 V2000
  -51.8711    4.4607  -14.3502 C   0  0  0  0  0
  -52.4497    4.1936  -15.6927 C   0  0  0  0  0
  -53.5000    4.9789  -16.1700 C   0  0  0  0  0
  -54.0295    4.7115  -17.4339 C   0  0  0  0  0
  -52.4973    2.9169  -17.7383 C   0  0  0  0  0
  -51.9434    3.1567  -16.4780 C   0  0  0  0  0
  -52.4340    1.4780  -19.8439 C   0  0  0  0  0
  -51.7983    0.3245  -20.5657 C   0  0  0  0  0
  -50.2611    0.2959  -20.4551 C   0  0  0  0  0
  -50.7203   -1.3638  -18.6202 C   0  0  0  0  0
  -52.1804   -1.2617  -18.9199 C   0  0  0  0  0
  -48.4127   -0.4299  -18.9032 C   0  0  0  0  0
  -49.6510   -0.1919  -21.7345 C   0  0  0  0  0
  -48.8393    0.6728  -22.4767 C   0  0  0  0  0
  -48.2539    0.2371  -23.6694 C   0  0  0  0  0
  -48.4774   -1.0661  -24.1231 C   0  0  0  0  0
  -49.2855   -1.9351  -23.3842 C   0  0  0  0  0
  -49.8711   -1.5003  -22.1918 C   0  0  0  0  0
  -53.5225    3.6964  -18.1845 N   0  0  0  0  0
  -51.9728    1.8519  -18.5383 N   0  0  0  0  0
  -49.8049   -0.5127  -19.3201 N   0  0  0  0  0
  -53.3924    2.0856  -20.3901 O   0  0  0  0  0
  -50.3176   -2.1450  -17.7177 O   0  0  0  0  0
  -52.3987   -0.9262  -20.2739 O   0  0  0  0  0
  -47.9100   -1.4873  -25.2786 F   0  0  0  0  0
  1  2  1  0  0  0
  3  4  1  0  0  0
  5 19  1  0  0  0
  5 20  1  0  0  0
  6  2  1  0  0  0
  8  7  1  0  0  0
  8  9  1  0  0  0
  8 24  1  0  0  0
  9 21  1  0  0  0
  9 13  1  0  0  0
 11 10  1  0  0  0
 11 24  1  0  0  0
 12 21  1  0  0  0
 14 15  1  0  0  0
 16 17  1  0  0  0
 16 25  1  0  0  0
 18 13  1  0  0  0
 20  7  1  0  0  0
 21 10  1  0  0  0
  2  3  2  0  0  0
  4 19  2  0  0  0
  5  6  2  0  0  0
  7 22  2  0  0  0
 10 23  2  0  0  0
 13 14  2  0  0  0
 15 16  2  0  0  0
 17 18  2  0  0  0
M  END
> <rmsd>
0.432299674

$$$$
ZINC000072242290 ZINC72242290 PubChem-95740501


 24 26  0  0  0  0  0  0  0  0999 V2000
  -49.8130    4.9514  -14.3403 C   0  0  0  0  0
  -50.9806    4.4023  -15.0788 C   0  0  0  0  0
  -52.1846    4.0409  -14.5050 C   0  0  0  0  0
  -52.9650    3.5830  -15.5560 C   0  0  0  0  0
  -52.1718    3.7101  -16.6799 C   0  0  0  0  0
  -52.5785    3.3238  -18.0576 C   0  0  0  0  0
  -52.3092    1.3573  -19.6131 C   0  0  0  0  0
  -51.6835    0.0372  -19.9209 C   0  0  0  0  0
  -51.9655   -0.9768  -18.8037 C   0  0  0  0  0
  -50.6152   -1.4208  -18.4051 C   0  0  0  0  0
  -50.1555    0.1834  -20.0484 C   0  0  0  0  0
  -49.7085   -0.0710  -21.4558 C   0  0  0  0  0
  -49.1136    0.9682  -22.1791 C   0  0  0  0  0
  -48.6872    0.7551  -23.4936 C   0  0  0  0  0
  -48.8542   -0.4989  -24.0892 C   0  0  0  0  0
  -49.4494   -1.5405  -23.3714 C   0  0  0  0  0
  -49.8773   -1.3281  -22.0574 C   0  0  0  0  0
  -48.1723   -0.8620  -18.7975 C   0  0  0  0  0
  -50.9959    4.1954  -16.3710 O   0  0  0  0  0
  -53.1020    1.8731  -20.4458 O   0  0  0  0  0
  -50.3968   -2.2749  -17.5070 O   0  0  0  0  0
  -52.0012    2.0324  -18.3910 N   0  0  0  0  0
  -49.5854   -0.7873  -19.1334 N   0  0  0  0  0
  -48.4336   -0.7054  -25.3592 F   0  0  0  0  0
  1  2  1  0  0  0
  2 19  1  0  0  0
  3  4  1  0  0  0
  5 19  1  0  0  0
  6  5  1  0  0  0
  6 22  1  0  0  0
  8  7  1  0  0  0
  8  9  1  0  0  0
  9 10  1  0  0  0
 10 23  1  0  0  0
 11 23  1  0  0  0
 11 12  1  0  0  0
 11  8  1  0  0  0
 13 14  1  0  0  0
 15 16  1  0  0  0
 15 24  1  0  0  0
 17 12  1  0  0  0
 18 23  1  0  0  0
 22  7  1  0  0  0
  2  3  2  0  0  0
  4  5  2  0  0  0
  7 20  2  0  0  0
 10 21  2  0  0  0
 12 13  2  0  0  0
 14 15  2  0  0  0
 16 17  2  0  0  0
M  END
> <rmsd>
0.450883895

$$$$
ZINC000229790166 PubChem-100856248


 23 25  0  0  0  0  0  0  0  0999 V2000
  -48.1621   -1.0138  -18.8711 C   0  0  0  0  0
  -50.6135   -1.5183  -18.4687 C   0  0  0  0  0
  -51.9543   -1.0265  -18.8414 C   0  0  0  0  0
  -51.6571   -0.0029  -19.9453 C   0  0  0  0  0
  -52.2523    1.3245  -19.6107 C   0  0  0  0  0
  -52.4128    3.3041  -18.0569 C   0  0  0  0  0
  -51.8080    3.7729  -16.7471 C   0  0  0  0  0
  -52.2601    5.1830  -16.4532 C   0  0  0  0  0
  -52.5063    5.1809  -14.9749 C   0  0  0  0  0
  -52.1983    3.7626  -14.5551 C   0  0  0  0  0
  -50.1269    0.1066  -20.0834 C   0  0  0  0  0
  -49.6974   -0.1262  -21.4999 C   0  0  0  0  0
  -49.0408    0.8984  -22.1899 C   0  0  0  0  0
  -48.6312    0.7053  -23.5126 C   0  0  0  0  0
  -48.8776   -0.5142  -24.1502 C   0  0  0  0  0
  -49.5337   -1.5415  -23.4657 C   0  0  0  0  0
  -49.9434   -1.3491  -22.1433 C   0  0  0  0  0
  -49.5745   -0.9000  -19.1965 N   0  0  0  0  0
  -51.8582    2.0104  -18.4202 N   0  0  0  0  0
  -50.4098   -2.3880  -17.5813 O   0  0  0  0  0
  -53.1020    1.8335  -20.3892 O   0  0  0  0  0
  -52.2288    2.9461  -15.6947 O   0  0  0  0  0
  -48.4805   -0.7005  -25.4316 F   0  0  0  0  0
  1 18  1  0  0  0
  3  2  1  0  0  0
  3  4  1  0  0  0
  4  5  1  0  0  0
  4 11  1  0  0  0
  5 19  1  0  0  0
  6 19  1  0  0  0
  7  6  1  0  0  0
  7  8  1  0  0  0
  7 22  1  0  0  0
  8  9  1  0  0  0
  9 10  1  0  0  0
 10 22  1  0  0  0
 11 12  1  0  0  0
 11 18  1  0  0  0
 13 14  1  0  0  0
 15 23  1  0  0  0
 15 16  1  0  0  0
 17 12  1  0  0  0
 18  2  1  0  0  0
  2 20  2  0  0  0
  5 21  2  0  0  0
 12 13  2  0  0  0
 14 15  2  0  0  0
 16 17  2  0  0  0
M  END
> <rmsd>
0.436825693

$$$$
