ZINC000018200763


 30 34  0  0  0  0  0  0  0  0999 V2000
  -48.6626   -2.8737  -23.1036 C   0  0  0  0  0  0  0  0  0  0  0  0
  -48.0153   -1.5789  -23.5697 C   0  0  0  0  0  0  0  0  0  0  0  0
  -47.3049   -1.8471  -24.8793 C   0  0  0  0  0  0  0  0  0  0  0  0
  -46.9828   -1.1097  -22.5432 C   0  0  0  0  0  0  0  0  0  0  0  0
  -47.6026   -0.4411  -21.3487 C   0  0  0  0  0  0  0  0  0  0  0  0
  -46.8861   -0.2368  -20.3333 O   0  0  0  0  0  0  0  0  0  0  0  0
  -49.0197   -0.0032  -21.3586 C   0  0  0  0  0  0  0  0  0  0  0  0
  -49.7272   -0.0475  -22.5250 C   0  0  0  0  0  0  0  0  0  0  0  0
  -49.0790   -0.5048  -23.8027 C   0  0  0  0  0  0  0  0  0  0  0  0
  -51.0768    0.4464  -22.6009 N   0  0  0  0  0  0  0  0  0  0  0  0
  -51.6622    1.0106  -21.4355 C   0  0  0  0  0  0  0  0  0  0  0  0
  -52.8776    1.5797  -21.3462 N   0  0  0  0  0  0  0  0  0  0  0  0
  -53.0201    1.9967  -20.0914 N   0  0  0  0  0  0  0  0  0  0  0  0
  -51.8933    1.6866  -19.4135 C   0  0  0  0  0  0  0  0  0  0  0  0
  -51.6908    1.9627  -18.0678 O   0  0  0  0  0  0  0  0  0  0  0  0
  -51.0056    1.0602  -20.2527 C   0  0  0  0  0  0  0  0  0  0  0  0
  -49.6508    0.4589  -20.0394 C   0  0  0  0  0  0  0  0  0  0  0  0
  -51.5841    0.3944  -23.4430 H   0  0  0  0  0  0  0  0  0  0  0  0
  -53.5366    1.6704  -22.0719 H   0  0  0  0  0  0  0  0  0  0  0  0
  -52.3579    2.3964  -17.5729 H   0  0  0  0  0  0  0  0  0  0  0  0
  -49.7257   -0.6680  -19.0397 C   0  0  0  0  0  0  0  0  0  0  0  0
  -50.2999   -1.8935  -19.4077 C   0  0  0  0  0  0  0  0  0  0  0  0
  -50.3766   -2.9326  -18.4798 C   0  0  0  0  0  0  0  0  0  0  0  0
  -49.8998   -2.7612  -17.2189 N   0  0  0  0  0  0  0  0  0  0  0  0
  -49.3405   -1.5879  -16.8221 C   0  0  0  0  0  0  0  0  0  0  0  0
  -48.8644   -1.4510  -15.5149 C   0  0  0  0  0  0  0  0  0  0  0  0
  -48.2903   -0.2460  -15.1007 C   0  0  0  0  0  0  0  0  0  0  0  0
  -48.1900    0.8266  -15.9912 C   0  0  0  0  0  0  0  0  0  0  0  0
  -48.6630    0.6984  -17.2999 C   0  0  0  0  0  0  0  0  0  0  0  0
  -49.2412   -0.5063  -17.7286 C   0  0  0  0  0  0  0  0  0  0  0  0
  1  2  1  0  0  0
  2  3  1  0  0  0
  2  4  1  0  0  0
  4  5  1  0  0  0
  5  6  2  0  0  0
  5  7  1  0  0  0
  7  8  2  0  0  0
  8  9  1  0  0  0
  8 10  1  0  0  0
 10 11  1  0  0  0
 11 12  1  0  0  0
 12 13  1  0  0  0
 13 14  2  0  0  0
 14 15  1  0  0  0
 14 16  1  0  0  0
 16 17  1  0  0  0
 17 21  1  0  0  0
 21 22  2  0  0  0
 22 23  1  0  0  0
 23 24  2  0  0  0
 24 25  1  0  0  0
 25 26  2  0  0  0
 26 27  1  0  0  0
 27 28  2  0  0  0
 28 29  1  0  0  0
 29 30  2  0  0  0
  9  2  1  0  0  0
 16 11  2  0  0  0
 30 21  1  0  0  0
 17  7  1  0  0  0
 30 25  1  0  0  0
 10 18  1  0  0  0
 12 19  1  0  0  0
 15 20  1  0  0  0
M  END
>  <minimizedAffinity>
-9.41693

>  <minimizedRMSD>
0.68215

$$$$
ZINC000018200764


 30 34  0  0  0  0  0  0  0  0999 V2000
  -48.6627   -2.8738  -23.1035 C   0  0  0  0  0  0  0  0  0  0  0  0
  -48.0154   -1.5790  -23.5696 C   0  0  0  0  0  0  0  0  0  0  0  0
  -47.3049   -1.8471  -24.8792 C   0  0  0  0  0  0  0  0  0  0  0  0
  -46.9829   -1.1098  -22.5431 C   0  0  0  0  0  0  0  0  0  0  0  0
  -47.6027   -0.4411  -21.3486 C   0  0  0  0  0  0  0  0  0  0  0  0
  -46.8861   -0.2369  -20.3334 O   0  0  0  0  0  0  0  0  0  0  0  0
  -49.0198   -0.0031  -21.3585 C   0  0  0  0  0  0  0  0  0  0  0  0
  -49.7272   -0.0475  -22.5249 C   0  0  0  0  0  0  0  0  0  0  0  0
  -49.0791   -0.5049  -23.8025 C   0  0  0  0  0  0  0  0  0  0  0  0
  -51.0769    0.4464  -22.6009 N   0  0  0  0  0  0  0  0  0  0  0  0
  -51.6622    1.0107  -21.4354 C   0  0  0  0  0  0  0  0  0  0  0  0
  -52.8776    1.5798  -21.3461 N   0  0  0  0  0  0  0  0  0  0  0  0
  -53.0201    1.9967  -20.0913 N   0  0  0  0  0  0  0  0  0  0  0  0
  -51.8932    1.6866  -19.4134 C   0  0  0  0  0  0  0  0  0  0  0  0
  -51.6907    1.9629  -18.0677 O   0  0  0  0  0  0  0  0  0  0  0  0
  -51.0057    1.0603  -20.2526 C   0  0  0  0  0  0  0  0  0  0  0  0
  -49.6508    0.4589  -20.0394 C   0  0  0  0  0  0  0  0  0  0  0  0
  -51.5842    0.3943  -23.4430 H   0  0  0  0  0  0  0  0  0  0  0  0
  -53.5367    1.6704  -22.0718 H   0  0  0  0  0  0  0  0  0  0  0  0
  -52.3578    2.3966  -17.5729 H   0  0  0  0  0  0  0  0  0  0  0  0
  -49.7257   -0.6680  -19.0396 C   0  0  0  0  0  0  0  0  0  0  0  0
  -50.3000   -1.8933  -19.4075 C   0  0  0  0  0  0  0  0  0  0  0  0
  -50.3768   -2.9325  -18.4796 C   0  0  0  0  0  0  0  0  0  0  0  0
  -49.8998   -2.7610  -17.2187 N   0  0  0  0  0  0  0  0  0  0  0  0
  -49.3404   -1.5878  -16.8220 C   0  0  0  0  0  0  0  0  0  0  0  0
  -48.8643   -1.4509  -15.5149 C   0  0  0  0  0  0  0  0  0  0  0  0
  -48.2900   -0.2460  -15.1008 C   0  0  0  0  0  0  0  0  0  0  0  0
  -48.1897    0.8266  -15.9912 C   0  0  0  0  0  0  0  0  0  0  0  0
  -48.6628    0.6984  -17.3000 C   0  0  0  0  0  0  0  0  0  0  0  0
  -49.2411   -0.5062  -17.7286 C   0  0  0  0  0  0  0  0  0  0  0  0
  1  2  1  0  0  0
  2  3  1  0  0  0
  2  4  1  0  0  0
  4  5  1  0  0  0
  5  6  2  0  0  0
  5  7  1  0  0  0
  7  8  2  0  0  0
  8  9  1  0  0  0
  8 10  1  0  0  0
 10 11  1  0  0  0
 11 12  1  0  0  0
 12 13  1  0  0  0
 13 14  2  0  0  0
 14 15  1  0  0  0
 14 16  1  0  0  0
 16 17  1  0  0  0
 17 21  1  0  0  0
 21 22  2  0  0  0
 22 23  1  0  0  0
 23 24  2  0  0  0
 24 25  1  0  0  0
 25 26  2  0  0  0
 26 27  1  0  0  0
 27 28  2  0  0  0
 28 29  1  0  0  0
 29 30  2  0  0  0
  9  2  1  0  0  0
 16 11  2  0  0  0
 30 21  1  0  0  0
 17  7  1  0  0  0
 30 25  1  0  0  0
 10 18  1  0  0  0
 12 19  1  0  0  0
 15 20  1  0  0  0
M  END
>  <minimizedAffinity>
-9.41665

>  <minimizedRMSD>
0.68210

$$$$
ZINC000012772569 CSC027018696 MCULE-2308435649 MolPort-005-665-378


 32 35  0  0  0  0  0  0  0  0999 V2000
  -51.1824    1.0148  -20.5156 C   0  0  0  0  0  0  0  0  0  0  0  0
  -51.5406   -0.0498  -21.3551 C   0  0  0  0  0  0  0  0  0  0  0  0
  -50.5569   -0.8396  -21.9558 C   0  0  0  0  0  0  0  0  0  0  0  0
  -49.1968   -0.5645  -21.7289 C   0  0  0  0  0  0  0  0  0  0  0  0
  -48.2395   -1.3774  -22.3503 C   0  0  0  0  0  0  0  0  0  0  0  0
  -48.6413   -2.4106  -23.1543 N   0  0  0  0  0  0  0  0  0  0  0  0
  -49.9761   -2.6589  -23.3508 C   0  0  0  0  0  0  0  0  0  0  0  0
  -50.9116   -1.8722  -22.7577 N   0  0  0  0  0  0  0  0  0  0  0  0
  -50.4413   -3.7774  -24.2357 C   0  0  0  0  0  0  0  0  0  0  0  0
  -50.5512   -3.3251  -25.6867 C   0  0  0  0  0  0  0  0  0  0  0  0
  -49.2106   -3.4061  -26.4070 C   0  0  0  0  0  0  0  0  0  0  0  0
  -48.3387   -2.2102  -26.0536 C   0  0  0  0  0  0  0  0  0  0  0  0
  -47.1805   -2.6030  -25.1390 C   0  0  0  0  0  0  0  0  0  0  0  0
  -47.6413   -3.2421  -23.8284 C   0  0  0  0  0  0  0  0  0  0  0  0
  -47.0094   -1.1538  -22.1681 O   0  0  0  0  0  0  0  0  0  0  0  0
  -48.8356    0.5082  -20.9028 C   0  0  0  0  0  0  0  0  0  0  0  0
  -49.8238    1.2940  -20.3042 C   0  0  0  0  0  0  0  0  0  0  0  0
  -52.0601    2.4706  -18.6167 N   0  0  0  0  0  0  0  0  0  0  0  0
  -52.2315    1.8554  -19.9014 C   0  0  0  0  0  0  0  0  0  0  0  0
  -53.2925    2.0826  -20.5415 O   0  0  0  0  0  0  0  0  0  0  0  0
  -52.4199    3.3801  -18.5041 H   0  0  0  0  0  0  0  0  0  0  0  0
  -51.4673    2.5297  -16.2379 C   0  0  0  0  0  0  0  0  0  0  0  0
  -51.4118    1.8800  -17.4812 C   0  0  0  0  0  0  0  0  0  0  0  0
  -50.7737    0.6345  -17.5836 C   0  0  0  0  0  0  0  0  0  0  0  0
  -50.1647    0.0441  -16.4700 C   0  0  0  0  0  0  0  0  0  0  0  0
  -50.2111    0.7051  -15.2358 C   0  0  0  0  0  0  0  0  0  0  0  0
  -50.8591    1.9364  -15.1198 C   0  0  0  0  0  0  0  0  0  0  0  0
  -49.5028   -1.2214  -16.5972 N   0  0  0  0  0  0  0  0  0  0  0  0
  -48.9412   -1.5933  -17.7972 O   0  0  0  0  0  0  0  0  0  0  0  0
  -49.4224   -1.9964  -15.6216 O   0  0  0  0  0  0  0  0  0  0  0  0
  -51.5586    4.8844  -15.4764 C   0  0  0  0  0  0  0  0  0  0  0  0
  -52.1258    3.7604  -16.1357 O   0  0  0  0  0  0  0  0  0  0  0  0
 31 32  1  0  0  0
 32 22  1  0  0  0
 22 23  2  0  0  0
 23 18  1  0  0  0
 18 19  1  0  0  0
 19  1  1  0  0  0
  1  2  2  0  0  0
  2  3  1  0  0  0
  3  4  2  0  0  0
  4  5  1  0  0  0
  5  6  1  0  0  0
  6  7  1  0  0  0
  7  8  2  0  0  0
  7  9  1  0  0  0
  9 10  1  0  0  0
 10 11  1  0  0  0
 11 12  1  0  0  0
 12 13  1  0  0  0
 13 14  1  0  0  0
  5 15  2  0  0  0
  4 16  1  0  0  0
 16 17  2  0  0  0
 19 20  2  0  0  0
 23 24  1  0  0  0
 24 25  2  0  0  0
 25 28  1  0  0  0
 28 29  1  0  0  0
 28 30  2  0  0  0
 25 26  1  0  0  0
 26 27  2  0  0  0
 27 22  1  0  0  0
 17  1  1  0  0  0
  8  3  1  0  0  0
 14  6  1  0  0  0
 18 21  1  0  0  0
M  CHG 1  28   1
M  CHG 1  29  -1
M  END
>  <minimizedAffinity>
-9.22681

>  <minimizedRMSD>
1.33011

$$$$
ZINC000096114852


 40 43  0  0  0  0  0  0  0  0999 V2000
  -49.6687   -4.7692  -22.6756 C   0  0  0  0  0  0  0  0  0  0  0  0
  -49.1715   -6.0716  -22.8433 C   0  0  0  0  0  0  0  0  0  0  0  0
  -49.1295   -6.6569  -24.1042 O   0  0  0  0  0  0  0  0  0  0  0  0
  -48.7061   -6.7960  -21.7477 C   0  0  0  0  0  0  0  0  0  0  0  0
  -48.7250   -6.2470  -20.4680 C   0  0  0  0  0  0  0  0  0  0  0  0
  -48.2396   -7.0132  -19.4135 O   0  0  0  0  0  0  0  0  0  0  0  0
  -49.2333   -4.9446  -20.2665 C   0  0  0  0  0  0  0  0  0  0  0  0
  -49.3045   -4.3395  -18.9955 C   0  0  0  0  0  0  0  0  0  0  0  0
  -48.9025   -4.9434  -17.9625 O   0  0  0  0  0  0  0  0  0  0  0  0
  -49.8404   -3.0553  -18.8679 C   0  0  0  0  0  0  0  0  0  0  0  0
  -49.9247   -2.4737  -17.6054 O   0  0  0  0  0  0  0  0  0  0  0  0
  -50.3012   -2.3855  -20.0196 C   0  0  0  0  0  0  0  0  0  0  0  0
  -50.2157   -2.9918  -21.2009 O   0  0  0  0  0  0  0  0  0  0  0  0
  -49.7108   -4.2078  -21.3794 C   0  0  0  0  0  0  0  0  0  0  0  0
  -49.4386   -6.1832  -24.8512 H   0  0  0  0  0  0  0  0  0  0  0  0
  -47.9078   -7.8746  -19.5741 H   0  0  0  0  0  0  0  0  0  0  0  0
  -49.6120   -2.9378  -16.8539 H   0  0  0  0  0  0  0  0  0  0  0  0
  -50.8924   -1.0224  -19.9844 C   0  0  0  0  0  0  0  0  0  0  0  0
  -51.1510   -0.3593  -21.1937 C   0  0  0  0  0  0  0  0  0  0  0  0
  -51.6846    0.9327  -21.2002 C   0  0  0  0  0  0  0  0  0  0  0  0
  -51.9619    1.5819  -19.9948 C   0  0  0  0  0  0  0  0  0  0  0  0
  -52.4871    2.8675  -20.0096 O   0  0  0  0  0  0  0  0  0  0  0  0
  -51.7036    0.9360  -18.7803 C   0  0  0  0  0  0  0  0  0  0  0  0
  -51.9663    1.5734  -17.5746 O   0  0  0  0  0  0  0  0  0  0  0  0
  -51.1708   -0.3568  -18.7788 C   0  0  0  0  0  0  0  0  0  0  0  0
  -52.6578    3.2945  -20.8260 H   0  0  0  0  0  0  0  0  0  0  0  0
  -52.3234    2.4397  -17.5706 H   0  0  0  0  0  0  0  0  0  0  0  0
  -50.1299   -4.0202  -23.9029 C   0  0  0  0  0  0  0  0  0  0  0  0
  -49.0212   -3.3773  -24.6890 C   0  0  0  0  0  0  0  0  0  0  0  0
  -48.7252   -3.9042  -25.9520 C   0  0  0  0  0  0  0  0  0  0  0  0
  -47.7050   -3.3549  -26.7316 C   0  0  0  0  0  0  0  0  0  0  0  0
  -46.9708   -2.2684  -26.2529 C   0  0  0  0  0  0  0  0  0  0  0  0
  -47.2535   -1.7352  -24.9930 C   0  0  0  0  0  0  0  0  0  0  0  0
  -48.2723   -2.2844  -24.2076 C   0  0  0  0  0  0  0  0  0  0  0  0
  -48.5343   -1.7309  -22.9999 F   0  0  0  0  0  0  0  0  0  0  0  0
  -51.3788   -3.1603  -23.7212 C   0  0  0  0  0  0  0  0  0  0  0  0
  -51.5967   -2.2996  -24.9243 C   0  0  0  0  0  0  0  0  0  0  0  0
  -52.0399   -2.8245  -25.9795 O   0  0  0  0  0  0  0  0  0  0  0  0
  -50.5365   -0.3103  -25.9350 C   0  0  0  0  0  0  0  0  0  0  0  0
  -51.2999   -0.9347  -24.9140 O   0  0  0  0  0  0  0  0  0  0  0  0
 39 40  1  0  0  0
 40 37  1  0  0  0
 37 38  2  0  0  0
 37 36  1  0  0  0
 28 36  1  0  0  0
 28 29  1  0  0  0
 29 30  2  0  0  0
 30 31  1  0  0  0
 31 32  2  0  0  0
 32 33  1  0  0  0
 33 34  2  0  0  0
 34 35  1  0  0  0
 28  1  1  0  0  0
  1  2  2  0  0  0
  2  3  1  0  0  0
  2  4  1  0  0  0
  4  5  2  0  0  0
  5  6  1  0  0  0
  5  7  1  0  0  0
  7  8  1  0  0  0
  8  9  2  0  0  0
  8 10  1  0  0  0
 10 11  1  0  0  0
 10 12  2  0  0  0
 12 18  1  0  0  0
 18 19  2  0  0  0
 19 20  1  0  0  0
 20 21  2  0  0  0
 21 22  1  0  0  0
 21 23  1  0  0  0
 23 24  1  0  0  0
 23 25  2  0  0  0
 12 13  1  0  0  0
 13 14  1  0  0  0
 34 29  1  0  0  0
 14  1  1  0  0  0
 14  7  2  0  0  0
 25 18  1  0  0  0
  3 15  1  0  0  0
  6 16  1  0  0  0
 11 17  1  0  0  0
 22 26  1  0  0  0
 24 27  1  0  0  0
M  END
>  <minimizedAffinity>
-9.16396

>  <minimizedRMSD>
0.99410

$$$$
ZINC000096117524


 35 39  0  0  0  0  0  0  0  0999 V2000
  -49.0984   -2.2620  -16.7717 O   0  0  0  0  0  0  0  0  0  0  0  0
  -49.3799   -2.3944  -17.9926 C   0  0  0  0  0  0  0  0  0  0  0  0
  -49.0006   -3.5626  -18.6403 C   0  0  0  0  0  0  0  0  0  0  0  0
  -49.3099   -3.7328  -19.9913 C   0  0  0  0  0  0  0  0  0  0  0  0
  -49.9512   -2.7681  -20.6483 O   0  0  0  0  0  0  0  0  0  0  0  0
  -50.3285   -1.6194  -20.0857 C   0  0  0  0  0  0  0  0  0  0  0  0
  -50.0707   -1.3943  -18.7073 C   0  0  0  0  0  0  0  0  0  0  0  0
  -50.5233   -0.2039  -18.1005 C   0  0  0  0  0  0  0  0  0  0  0  0
  -50.2816    0.0581  -16.7546 O   0  0  0  0  0  0  0  0  0  0  0  0
  -51.2447    0.7292  -18.8456 C   0  0  0  0  0  0  0  0  0  0  0  0
  -51.7251    1.8799  -18.2290 O   0  0  0  0  0  0  0  0  0  0  0  0
  -51.4949    0.5166  -20.2027 C   0  0  0  0  0  0  0  0  0  0  0  0
  -50.9874   -0.6300  -20.8585 C   0  0  0  0  0  0  0  0  0  0  0  0
  -51.2974   -0.8206  -22.3482 C   0  0  0  0  0  0  0  0  0  0  0  0
  -51.5741    0.4979  -23.0767 C   0  0  0  0  0  0  0  0  0  0  0  0
  -52.4574    1.3790  -22.2686 C   0  0  0  0  0  0  0  0  0  0  0  0
  -53.3398    2.0784  -22.8294 O   0  0  0  0  0  0  0  0  0  0  0  0
  -52.2807    1.4483  -20.8905 O   0  0  0  0  0  0  0  0  0  0  0  0
  -49.7989   -0.5561  -16.2371 H   0  0  0  0  0  0  0  0  0  0  0  0
  -51.5600    2.0274  -17.3186 H   0  0  0  0  0  0  0  0  0  0  0  0
  -50.2411   -1.5550  -23.1279 C   0  0  0  0  0  0  0  0  0  0  0  0
  -50.6420   -2.6038  -23.9628 C   0  0  0  0  0  0  0  0  0  0  0  0
  -49.7043   -3.2833  -24.7440 C   0  0  0  0  0  0  0  0  0  0  0  0
  -48.3566   -2.9206  -24.6935 C   0  0  0  0  0  0  0  0  0  0  0  0
  -47.4520   -3.5900  -25.4488 F   0  0  0  0  0  0  0  0  0  0  0  0
  -47.9451   -1.8682  -23.8683 C   0  0  0  0  0  0  0  0  0  0  0  0
  -46.6372   -1.5122  -23.8264 F   0  0  0  0  0  0  0  0  0  0  0  0
  -48.8839   -1.1764  -23.0934 C   0  0  0  0  0  0  0  0  0  0  0  0
  -48.4748   -0.1428  -22.3144 F   0  0  0  0  0  0  0  0  0  0  0  0
  -48.9309   -4.9754  -20.6943 C   0  0  0  0  0  0  0  0  0  0  0  0
  -49.3626   -5.1945  -22.0090 C   0  0  0  0  0  0  0  0  0  0  0  0
  -49.0111   -6.3651  -22.6872 C   0  0  0  0  0  0  0  0  0  0  0  0
  -48.2241   -7.3297  -22.0537 C   0  0  0  0  0  0  0  0  0  0  0  0
  -47.7896   -7.1240  -20.7419 C   0  0  0  0  0  0  0  0  0  0  0  0
  -48.1415   -5.9527  -20.0650 C   0  0  0  0  0  0  0  0  0  0  0  0
  1  2  2  0  0  0
  2  3  1  0  0  0
  3  4  2  0  0  0
  4 30  1  0  0  0
 30 31  2  0  0  0
 31 32  1  0  0  0
 32 33  2  0  0  0
 33 34  1  0  0  0
 34 35  2  0  0  0
  4  5  1  0  0  0
  5  6  1  0  0  0
  6  7  2  0  0  0
  7  8  1  0  0  0
  8  9  1  0  0  0
  8 10  2  0  0  0
 10 11  1  0  0  0
 10 12  1  0  0  0
 12 13  2  0  0  0
 13 14  1  0  0  0
 14 21  1  0  0  0
 21 22  2  0  0  0
 22 23  1  0  0  0
 23 24  2  0  0  0
 24 25  1  0  0  0
 24 26  1  0  0  0
 26 27  1  0  0  0
 26 28  2  0  0  0
 28 29  1  0  0  0
 14 15  1  0  0  0
 15 16  1  0  0  0
 16 17  2  0  0  0
 16 18  1  0  0  0
  7  2  1  0  0  0
 18 12  1  0  0  0
 35 30  1  0  0  0
 13  6  1  0  0  0
 28 21  1  0  0  0
  9 19  1  0  0  0
 11 20  1  0  0  0
M  END
>  <minimizedAffinity>
-9.06975

>  <minimizedRMSD>
1.81601

$$$$
ZINC000009380298 ZINC09380298 MolPort-002-580-065 PubChem-1960546


 34 38  0  0  0  0  0  0  0  0999 V2000
  -50.3017    0.6572  -18.1557 N   0  0  0  0  0  0  0  0  0  0  0  0
  -51.3309    1.5554  -17.6815 C   0  0  0  0  0  0  0  0  0  0  0  0
  -51.6145    1.7760  -16.0805 S   0  0  0  0  0  0  0  0  0  0  0  0
  -52.1764    2.2294  -18.6151 N   0  0  0  0  0  0  0  0  0  0  0  0
  -52.1163    1.9527  -20.0131 C   0  0  0  0  0  0  0  0  0  0  0  0
  -52.8907    2.5643  -20.7974 O   0  0  0  0  0  0  0  0  0  0  0  0
  -51.1764    0.9373  -20.5182 C   0  0  0  0  0  0  0  0  0  0  0  0
  -51.2916    0.5297  -21.7951 C   0  0  0  0  0  0  0  0  0  0  0  0
  -50.1409    0.4503  -19.5735 C   0  0  0  0  0  0  0  0  0  0  0  0
  -49.0762   -0.0685  -20.0086 O   0  0  0  0  0  0  0  0  0  0  0  0
  -52.8162    2.9013  -18.2855 H   0  0  0  0  0  0  0  0  0  0  0  0
  -50.5850   -0.5825  -22.4530 C   0  0  0  0  0  0  0  0  0  0  0  0
  -51.0061   -1.9119  -22.2981 C   0  0  0  0  0  0  0  0  0  0  0  0
  -50.3566   -2.9448  -22.9771 C   0  0  0  0  0  0  0  0  0  0  0  0
  -49.3043   -2.6442  -23.8597 C   0  0  0  0  0  0  0  0  0  0  0  0
  -48.6204   -3.7049  -24.5496 N   0  0  0  0  0  0  0  0  0  0  0  0
  -47.3761   -3.4311  -25.2591 C   0  0  0  0  0  0  0  0  0  0  0  0
  -47.4841   -2.0930  -25.9826 C   0  0  0  0  0  0  0  0  0  0  0  0
  -47.7790   -0.9671  -24.9867 C   0  0  0  0  0  0  0  0  0  0  0  0
  -48.9077   -1.3083  -24.0528 C   0  0  0  0  0  0  0  0  0  0  0  0
  -49.5524   -0.2866  -23.3494 C   0  0  0  0  0  0  0  0  0  0  0  0
  -49.1507   -5.0647  -24.5251 C   0  0  0  0  0  0  0  0  0  0  0  0
  -49.7360   -5.3680  -23.1484 C   0  0  0  0  0  0  0  0  0  0  0  0
  -50.8369   -4.3588  -22.8171 C   0  0  0  0  0  0  0  0  0  0  0  0
  -47.5572    0.1555  -15.6500 C   0  0  0  0  0  0  0  0  0  0  0  0
  -47.5759   -1.2338  -15.5082 C   0  0  0  0  0  0  0  0  0  0  0  0
  -48.4917   -2.0038  -16.2281 C   0  0  0  0  0  0  0  0  0  0  0  0
  -49.4058   -1.3932  -17.1016 C   0  0  0  0  0  0  0  0  0  0  0  0
  -49.3940    0.0071  -17.2460 C   0  0  0  0  0  0  0  0  0  0  0  0
  -48.4664    0.7704  -16.5234 C   0  0  0  0  0  0  0  0  0  0  0  0
  -47.0115    1.9156  -14.0005 C   0  0  0  0  0  0  0  0  0  0  0  0
  -46.6287    0.8986  -14.9163 O   0  0  0  0  0  0  0  0  0  0  0  0
  -50.3318   -2.1532  -17.8256 O   0  0  0  0  0  0  0  0  0  0  0  0
  -49.9466   -3.1429  -18.7696 C   0  0  0  0  0  0  0  0  0  0  0  0
 31 32  1  0  0  0
 32 25  1  0  0  0
 25 26  2  0  0  0
 26 27  1  0  0  0
 27 28  2  0  0  0
 28 33  1  0  0  0
 28 29  1  0  0  0
 33 34  1  0  0  0
 29 30  2  0  0  0
 29  1  1  0  0  0
 30 25  1  0  0  0
  1  2  1  0  0  0
  2  3  2  0  0  0
  2  4  1  0  0  0
  4  5  1  0  0  0
  5  6  2  0  0  0
  5  7  1  0  0  0
  7  8  2  0  0  0
  7  9  1  0  0  0
  8 12  1  0  0  0
 12 13  2  0  0  0
 13 14  1  0  0  0
 14 15  2  0  0  0
 15 16  1  0  0  0
 16 17  1  0  0  0
 16 22  1  0  0  0
 17 18  1  0  0  0
 18 19  1  0  0  0
 19 20  1  0  0  0
 20 21  2  0  0  0
 20 15  1  0  0  0
 21 12  1  0  0  0
 22 23  1  0  0  0
 23 24  1  0  0  0
 24 14  1  0  0  0
  9 10  2  0  0  0
  9  1  1  0  0  0
  4 11  1  0  0  0
M  END
>  <minimizedAffinity>
-9.01595

>  <minimizedRMSD>
1.05407

$$$$
ZINC000009380298 ZINC09380298 MolPort-002-580-065 PubChem-1960546


 34 38  0  0  0  0  0  0  0  0999 V2000
  -50.2968    0.6614  -18.1601 N   0  0  0  0  0  0  0  0  0  0  0  0
  -51.3258    1.5596  -17.6860 C   0  0  0  0  0  0  0  0  0  0  0  0
  -51.6132    1.7756  -16.0851 S   0  0  0  0  0  0  0  0  0  0  0  0
  -52.1676    2.2382  -18.6197 N   0  0  0  0  0  0  0  0  0  0  0  0
  -52.1037    1.9662  -20.0185 C   0  0  0  0  0  0  0  0  0  0  0  0
  -52.8749    2.5816  -20.8029 O   0  0  0  0  0  0  0  0  0  0  0  0
  -51.1635    0.9514  -20.5244 C   0  0  0  0  0  0  0  0  0  0  0  0
  -51.2752    0.5490  -21.8032 C   0  0  0  0  0  0  0  0  0  0  0  0
  -50.1315    0.4597  -19.5782 C   0  0  0  0  0  0  0  0  0  0  0  0
  -49.0658   -0.0585  -20.0118 O   0  0  0  0  0  0  0  0  0  0  0  0
  -52.8073    2.9098  -18.2897 H   0  0  0  0  0  0  0  0  0  0  0  0
  -50.5687   -0.5612  -22.4646 C   0  0  0  0  0  0  0  0  0  0  0  0
  -49.4942   -0.2659  -23.3094 C   0  0  0  0  0  0  0  0  0  0  0  0
  -48.8433   -1.2842  -24.0113 C   0  0  0  0  0  0  0  0  0  0  0  0
  -49.2653   -2.6183  -23.8632 C   0  0  0  0  0  0  0  0  0  0  0  0
  -48.6033   -3.6714  -24.5921 N   0  0  0  0  0  0  0  0  0  0  0  0
  -48.9517   -5.0669  -24.3400 C   0  0  0  0  0  0  0  0  0  0  0  0
  -50.4496   -5.1978  -24.0831 C   0  0  0  0  0  0  0  0  0  0  0  0
  -50.8636   -4.3241  -22.8991 C   0  0  0  0  0  0  0  0  0  0  0  0
  -50.3770   -2.9124  -23.0523 C   0  0  0  0  0  0  0  0  0  0  0  0
  -51.0230   -1.8845  -22.3623 C   0  0  0  0  0  0  0  0  0  0  0  0
  -47.4034   -3.3900  -25.3779 C   0  0  0  0  0  0  0  0  0  0  0  0
  -47.4701   -1.9862  -25.9741 C   0  0  0  0  0  0  0  0  0  0  0  0
  -47.6538   -0.9550  -24.8629 C   0  0  0  0  0  0  0  0  0  0  0  0
  -47.5602    0.1428  -15.6494 C   0  0  0  0  0  0  0  0  0  0  0  0
  -47.5852   -1.2467  -15.5105 C   0  0  0  0  0  0  0  0  0  0  0  0
  -48.5026   -2.0113  -16.2341 C   0  0  0  0  0  0  0  0  0  0  0  0
  -49.4120   -1.3949  -17.1086 C   0  0  0  0  0  0  0  0  0  0  0  0
  -49.3938    0.0056  -17.2499 C   0  0  0  0  0  0  0  0  0  0  0  0
  -48.4647    0.7634  -16.5236 C   0  0  0  0  0  0  0  0  0  0  0  0
  -47.0095    1.9128  -14.0122 C   0  0  0  0  0  0  0  0  0  0  0  0
  -46.6302    0.8804  -14.9120 O   0  0  0  0  0  0  0  0  0  0  0  0
  -50.3397   -2.1493  -17.8363 O   0  0  0  0  0  0  0  0  0  0  0  0
  -49.9567   -3.1355  -18.7849 C   0  0  0  0  0  0  0  0  0  0  0  0
 31 32  1  0  0  0
 32 25  1  0  0  0
 25 26  2  0  0  0
 26 27  1  0  0  0
 27 28  2  0  0  0
 28 33  1  0  0  0
 28 29  1  0  0  0
 33 34  1  0  0  0
 29 30  2  0  0  0
 29  1  1  0  0  0
 30 25  1  0  0  0
  1  2  1  0  0  0
  2  3  2  0  0  0
  2  4  1  0  0  0
  4  5  1  0  0  0
  5  6  2  0  0  0
  5  7  1  0  0  0
  7  8  2  0  0  0
  7  9  1  0  0  0
  8 12  1  0  0  0
 12 13  2  0  0  0
 13 14  1  0  0  0
 14 15  2  0  0  0
 15 16  1  0  0  0
 16 17  1  0  0  0
 16 22  1  0  0  0
 17 18  1  0  0  0
 18 19  1  0  0  0
 19 20  1  0  0  0
 20 21  2  0  0  0
 20 15  1  0  0  0
 21 12  1  0  0  0
 22 23  1  0  0  0
 23 24  1  0  0  0
 24 14  1  0  0  0
  9 10  2  0  0  0
  9  1  1  0  0  0
  4 11  1  0  0  0
M  END
>  <minimizedAffinity>
-9.00099

>  <minimizedRMSD>
1.08772

$$$$
ZINC000064971506 ZINC64971506 ChemDiv-G741-1139 MCULE-4305964791 MolPort-010-846-948 PubChem-53091021


 35 38  0  0  0  0  0  0  0  0999 V2000
  -50.2702    0.3903  -17.6616 N   0  0  0  0  0  0  0  0  0  0  0  0
  -50.7444    0.2225  -19.0064 C   0  0  0  0  0  0  0  0  0  0  0  0
  -51.4660    1.1094  -19.5366 O   0  0  0  0  0  0  0  0  0  0  0  0
  -50.4161   -0.9820  -19.7316 N   0  0  0  0  0  0  0  0  0  0  0  0
  -49.6940   -2.0314  -19.0065 C   0  0  0  0  0  0  0  0  0  0  0  0
  -50.0700   -3.3928  -19.4954 C   0  0  0  0  0  0  0  0  0  0  0  0
  -50.0131   -4.3691  -18.7027 O   0  0  0  0  0  0  0  0  0  0  0  0
  -50.4199   -3.5897  -20.8718 N   0  0  0  0  0  0  0  0  0  0  0  0
  -50.6693   -2.4424  -21.7103 C   0  0  0  0  0  0  0  0  0  0  0  0
  -50.6696   -1.1458  -21.1481 C   0  0  0  0  0  0  0  0  0  0  0  0
  -50.8997   -0.0395  -21.9820 C   0  0  0  0  0  0  0  0  0  0  0  0
  -51.1410   -0.2097  -23.3459 C   0  0  0  0  0  0  0  0  0  0  0  0
  -51.1538   -1.4900  -23.8964 C   0  0  0  0  0  0  0  0  0  0  0  0
  -50.9201   -2.6004  -23.0831 C   0  0  0  0  0  0  0  0  0  0  0  0
  -49.6715   -0.3113  -17.3172 H   0  0  0  0  0  0  0  0  0  0  0  0
  -51.4206    4.6310  -13.9895 C   0  0  0  0  0  0  0  0  0  0  0  0
  -51.1278    3.5347  -14.9506 C   0  0  0  0  0  0  0  0  0  0  0  0
  -50.2400    2.5162  -14.5981 C   0  0  0  0  0  0  0  0  0  0  0  0
  -49.9655    1.4863  -15.5026 C   0  0  0  0  0  0  0  0  0  0  0  0
  -50.5736    1.4691  -16.7641 C   0  0  0  0  0  0  0  0  0  0  0  0
  -51.4693    2.4912  -17.1087 C   0  0  0  0  0  0  0  0  0  0  0  0
  -51.7459    3.5216  -16.2053 C   0  0  0  0  0  0  0  0  0  0  0  0
  -50.4300   -4.9495  -21.4151 C   0  0  0  0  0  0  0  0  0  0  0  0
  -49.1549   -5.2342  -22.1406 C   0  0  0  0  0  0  0  0  0  0  0  0
  -49.1383   -6.1209  -23.0359 O   0  0  0  0  0  0  0  0  0  0  0  0
  -47.9668   -4.5038  -21.8185 N   0  0  0  0  0  0  0  0  0  0  0  0
  -47.9450   -3.9852  -20.9820 H   0  0  0  0  0  0  0  0  0  0  0  0
  -46.7881   -4.4945  -22.6753 C   0  0  0  0  0  0  0  0  0  0  0  0
  -47.0310   -3.6361  -23.8845 C   0  0  0  0  0  0  0  0  0  0  0  0
  -47.2128   -2.2386  -23.7855 C   0  0  0  0  0  0  0  0  0  0  0  0
  -47.1361   -1.5271  -22.4724 C   0  0  0  0  0  0  0  0  0  0  0  0
  -47.4780   -1.4905  -24.9411 C   0  0  0  0  0  0  0  0  0  0  0  0
  -47.5687   -2.1205  -26.1889 C   0  0  0  0  0  0  0  0  0  0  0  0
  -47.3934   -3.5038  -26.2874 C   0  0  0  0  0  0  0  0  0  0  0  0
  -47.1216   -4.2577  -25.1388 C   0  0  0  0  0  0  0  0  0  0  0  0
 16 17  1  0  0  0
 17 18  2  0  0  0
 18 19  1  0  0  0
 19 20  2  0  0  0
 20  1  1  0  0  0
 20 21  1  0  0  0
  1  2  1  0  0  0
  2  3  2  0  0  0
  2  4  1  0  0  0
  4  5  1  0  0  0
  5  6  1  0  0  0
  6  7  2  0  0  0
  6  8  1  0  0  0
  8 23  1  0  0  0
  8  9  1  0  0  0
 23 24  1  0  0  0
 24 25  2  0  0  0
 24 26  1  0  0  0
 26 28  1  0  0  0
 28 29  1  0  0  0
 29 30  2  0  0  0
 30 31  1  0  0  0
 30 32  1  0  0  0
 32 33  2  0  0  0
 33 34  1  0  0  0
 34 35  2  0  0  0
 35 29  1  0  0  0
  9 10  2  0  0  0
 10 11  1  0  0  0
 10  4  1  0  0  0
 11 12  2  0  0  0
 12 13  1  0  0  0
 13 14  2  0  0  0
 14  9  1  0  0  0
 21 22  2  0  0  0
 22 17  1  0  0  0
  1 15  1  0  0  0
 26 27  1  0  0  0
M  END
>  <minimizedAffinity>
-8.96650

>  <minimizedRMSD>
2.23612

$$$$
ZINC000096114995 ZINC96114995 PubChem-97424600


 33 37  0  0  0  0  0  0  0  0999 V2000
  -51.3788   -0.2589  -20.6882 C   0  0  0  0  0  0  0  0  0  0  0  0
  -51.7335    1.0741  -21.3526 C   0  0  0  0  0  0  0  0  0  0  0  0
  -52.4367    1.9855  -20.4110 C   0  0  0  0  0  0  0  0  0  0  0  0
  -53.3518    2.7412  -20.8280 O   0  0  0  0  0  0  0  0  0  0  0  0
  -52.0511    2.0275  -19.0750 O   0  0  0  0  0  0  0  0  0  0  0  0
  -51.2325    1.0421  -18.5132 C   0  0  0  0  0  0  0  0  0  0  0  0
  -50.8833   -0.1150  -19.2465 C   0  0  0  0  0  0  0  0  0  0  0  0
  -50.1914   -1.1581  -18.5832 C   0  0  0  0  0  0  0  0  0  0  0  0
  -49.7497   -0.9868  -17.2452 C   0  0  0  0  0  0  0  0  0  0  0  0
  -49.0384   -2.0463  -16.6446 C   0  0  0  0  0  0  0  0  0  0  0  0
  -48.6029   -1.9666  -15.4651 O   0  0  0  0  0  0  0  0  0  0  0  0
  -48.8107   -3.2144  -17.3621 C   0  0  0  0  0  0  0  0  0  0  0  0
  -49.2915   -3.3242  -18.6688 C   0  0  0  0  0  0  0  0  0  0  0  0
  -49.9533   -2.3071  -19.2150 O   0  0  0  0  0  0  0  0  0  0  0  0
  -50.0462    0.2132  -16.5651 C   0  0  0  0  0  0  0  0  0  0  0  0
  -50.7965    1.2069  -17.1963 C   0  0  0  0  0  0  0  0  0  0  0  0
  -51.1215    2.3688  -16.5040 O   0  0  0  0  0  0  0  0  0  0  0  0
  -49.6196    0.4260  -15.2572 O   0  0  0  0  0  0  0  0  0  0  0  0
  -50.8315    2.4844  -15.6205 H   0  0  0  0  0  0  0  0  0  0  0  0
  -49.1150   -0.2292  -14.8166 H   0  0  0  0  0  0  0  0  0  0  0  0
  -48.2114    0.1906  -21.0087 C   0  0  0  0  0  0  0  0  0  0  0  0
  -49.0681   -0.7750  -21.7581 C   0  0  0  0  0  0  0  0  0  0  0  0
  -50.4250   -0.9771  -21.5994 C   0  0  0  0  0  0  0  0  0  0  0  0
  -50.7731   -1.9326  -22.5398 C   0  0  0  0  0  0  0  0  0  0  0  0
  -49.6555   -2.2925  -23.2093 N   0  0  0  0  0  0  0  0  0  0  0  0
  -48.6389   -1.5940  -22.7312 N   0  0  0  0  0  0  0  0  0  0  0  0
  -47.2767   -1.7154  -23.2220 C   0  0  0  0  0  0  0  0  0  0  0  0
  -49.0695   -4.5568  -19.4519 C   0  0  0  0  0  0  0  0  0  0  0  0
  -48.5073   -5.7006  -18.8612 C   0  0  0  0  0  0  0  0  0  0  0  0
  -48.3003   -6.8590  -19.6156 C   0  0  0  0  0  0  0  0  0  0  0  0
  -48.6532   -6.8847  -20.9672 C   0  0  0  0  0  0  0  0  0  0  0  0
  -49.2137   -5.7525  -21.5639 C   0  0  0  0  0  0  0  0  0  0  0  0
  -49.4206   -4.5948  -20.8087 C   0  0  0  0  0  0  0  0  0  0  0  0
 21 22  1  0  0  0
 22 23  2  0  0  0
 23 24  1  0  0  0
 24 25  2  0  0  0
 25 26  1  0  0  0
 26 27  1  0  0  0
 26 22  1  0  0  0
  1 23  1  0  0  0
  1  2  1  0  0  0
  2  3  1  0  0  0
  3  4  2  0  0  0
  3  5  1  0  0  0
  5  6  1  0  0  0
  6  7  2  0  0  0
  7  8  1  0  0  0
  7  1  1  0  0  0
  8  9  2  0  0  0
  9 10  1  0  0  0
  9 15  1  0  0  0
 10 11  2  0  0  0
 10 12  1  0  0  0
 12 13  2  0  0  0
 13 14  1  0  0  0
 13 28  1  0  0  0
 14  8  1  0  0  0
 28 29  2  0  0  0
 29 30  1  0  0  0
 30 31  2  0  0  0
 31 32  1  0  0  0
 32 33  2  0  0  0
 33 28  1  0  0  0
 15 16  2  0  0  0
 15 18  1  0  0  0
 16 17  1  0  0  0
 16  6  1  0  0  0
 17 19  1  0  0  0
 18 20  1  0  0  0
M  END
>  <minimizedAffinity>
-8.94040

>  <minimizedRMSD>
2.46288

$$$$
ZINC000409246055 PubChem-126252235


 38 42  0  0  0  0  0  0  0  0999 V2000
  -50.4902    0.6681  -18.3762 N   0  0  0  0  0  0  0  0  0  0  0  0
  -51.4774    1.5297  -17.7734 C   0  0  0  0  0  0  0  0  0  0  0  0
  -51.5634    1.6296  -16.5203 O   0  0  0  0  0  0  0  0  0  0  0  0
  -52.3781    2.2766  -18.5928 N   0  0  0  0  0  0  0  0  0  0  0  0
  -52.3980    2.1190  -20.0110 C   0  0  0  0  0  0  0  0  0  0  0  0
  -53.2243    2.7823  -20.6937 O   0  0  0  0  0  0  0  0  0  0  0  0
  -51.4773    1.1654  -20.6557 C   0  0  0  0  0  0  0  0  0  0  0  0
  -51.6492    0.8821  -21.9593 C   0  0  0  0  0  0  0  0  0  0  0  0
  -50.3933    0.6011  -19.8131 C   0  0  0  0  0  0  0  0  0  0  0  0
  -49.3451    0.1431  -20.3456 O   0  0  0  0  0  0  0  0  0  0  0  0
  -52.9983    2.9136  -18.1701 H   0  0  0  0  0  0  0  0  0  0  0  0
  -50.9689   -0.1559  -22.7515 C   0  0  0  0  0  0  0  0  0  0  0  0
  -51.3933   -1.5073  -22.7140 C   0  0  0  0  0  0  0  0  0  0  0  0
  -50.7858   -2.4771  -23.5294 C   0  0  0  0  0  0  0  0  0  0  0  0
  -49.7685   -2.0522  -24.3830 C   0  0  0  0  0  0  0  0  0  0  0  0
  -49.3729   -0.7463  -24.4437 C   0  0  0  0  0  0  0  0  0  0  0  0
  -48.3622   -0.6410  -25.3798 C   0  0  0  0  0  0  0  0  0  0  0  0
  -48.1884   -1.9446  -25.8565 C   0  0  0  0  0  0  0  0  0  0  0  0
  -49.0539   -2.7868  -25.2462 N   0  0  0  0  0  0  0  0  0  0  0  0
  -49.9585    0.2365  -23.6497 C   0  0  0  0  0  0  0  0  0  0  0  0
  -49.1386   -4.2253  -25.4594 C   0  0  0  0  0  0  0  0  0  0  0  0
  -48.3276   -4.9469  -24.4372 C   0  0  0  0  0  0  0  0  0  0  0  0
  -48.8859   -5.2610  -23.1931 C   0  0  0  0  0  0  0  0  0  0  0  0
  -48.1155   -5.9106  -22.2237 C   0  0  0  0  0  0  0  0  0  0  0  0
  -46.7846   -6.2431  -22.4959 C   0  0  0  0  0  0  0  0  0  0  0  0
  -46.2238   -5.9252  -23.7369 C   0  0  0  0  0  0  0  0  0  0  0  0
  -44.9332   -6.2431  -23.9984 F   0  0  0  0  0  0  0  0  0  0  0  0
  -46.9938   -5.2749  -24.7062 C   0  0  0  0  0  0  0  0  0  0  0  0
  -47.7174   -1.4798  -15.9649 C   0  0  0  0  0  0  0  0  0  0  0  0
  -47.6974   -0.0784  -15.9995 C   0  0  0  0  0  0  0  0  0  0  0  0
  -48.6126    0.6188  -16.7889 C   0  0  0  0  0  0  0  0  0  0  0  0
  -49.5645   -0.0700  -17.5545 C   0  0  0  0  0  0  0  0  0  0  0  0
  -49.5949   -1.4791  -17.5188 C   0  0  0  0  0  0  0  0  0  0  0  0
  -48.6657   -2.1704  -16.7238 C   0  0  0  0  0  0  0  0  0  0  0  0
  -45.4238   -1.9090  -15.1436 C   0  0  0  0  0  0  0  0  0  0  0  0
  -46.8128   -2.2073  -15.1865 O   0  0  0  0  0  0  0  0  0  0  0  0
  -50.5567   -2.1701  -18.2657 O   0  0  0  0  0  0  0  0  0  0  0  0
  -50.2199   -3.0752  -19.3083 C   0  0  0  0  0  0  0  0  0  0  0  0
 35 36  1  0  0  0
 36 29  1  0  0  0
 29 30  2  0  0  0
 30 31  1  0  0  0
 31 32  2  0  0  0
 32  1  1  0  0  0
  1  2  1  0  0  0
  2  3  2  0  0  0
  2  4  1  0  0  0
  4  5  1  0  0  0
  5  6  2  0  0  0
  5  7  1  0  0  0
  7  8  2  0  0  0
  8 12  1  0  0  0
 12 13  2  0  0  0
 13 14  1  0  0  0
 14 15  2  0  0  0
 15 16  1  0  0  0
 16 17  1  0  0  0
 17 18  2  0  0  0
 18 19  1  0  0  0
 19 21  1  0  0  0
 21 22  1  0  0  0
 22 23  2  0  0  0
 23 24  1  0  0  0
 24 25  2  0  0  0
 25 26  1  0  0  0
 26 27  1  0  0  0
 26 28  2  0  0  0
 16 20  2  0  0  0
  7  9  1  0  0  0
  9 10  2  0  0  0
 32 33  1  0  0  0
 33 37  1  0  0  0
 37 38  1  0  0  0
 33 34  2  0  0  0
 34 29  1  0  0  0
  9  1  1  0  0  0
 20 12  1  0  0  0
 19 15  1  0  0  0
 28 22  1  0  0  0
  4 11  1  0  0  0
M  END
>  <minimizedAffinity>
-8.84281

>  <minimizedRMSD>
1.88335

$$$$
ZINC000224489095


 31 35  0  0  0  0  0  0  0  0999 V2000
  -52.1973    2.1206  -19.3289 C   0  0  0  0  0  0  0  0  0  0  0  0
  -53.0683    2.7401  -19.9955 O   0  0  0  0  0  0  0  0  0  0  0  0
  -52.2104    2.2336  -17.8988 N   0  0  0  0  0  0  0  0  0  0  0  0
  -53.0157    2.6320  -17.4963 H   0  0  0  0  0  0  0  0  0  0  0  0
  -51.1727    1.8269  -16.9913 C   0  0  0  0  0  0  0  0  0  0  0  0
  -50.3693    0.6846  -17.2484 C   0  0  0  0  0  0  0  0  0  0  0  0
  -49.3409    0.2974  -16.3635 C   0  0  0  0  0  0  0  0  0  0  0  0
  -49.1261    1.0725  -15.2237 C   0  0  0  0  0  0  0  0  0  0  0  0
  -49.8914    2.1675  -14.9916 C   0  0  0  0  0  0  0  0  0  0  0  0
  -49.5463    2.8061  -13.8451 C   0  0  0  0  0  0  0  0  0  0  0  0
  -50.2346    3.9550  -13.4470 C   0  0  0  0  0  0  0  0  0  0  0  0
  -51.2828    4.4240  -14.2687 C   0  0  0  0  0  0  0  0  0  0  0  0
  -51.6255    3.7452  -15.4616 C   0  0  0  0  0  0  0  0  0  0  0  0
  -50.9159    2.5893  -15.8333 C   0  0  0  0  0  0  0  0  0  0  0  0
  -48.4133    2.0949  -13.1783 C   0  0  0  0  0  0  0  0  0  0  0  0
  -48.1168    0.9055  -14.1339 C   0  0  0  0  0  0  0  0  0  0  0  0
  -49.4759    0.4766  -25.9440 C   0  0  0  0  0  0  0  0  0  0  0  0
  -49.7663    0.0682  -24.5449 C   0  0  0  0  0  0  0  0  0  0  0  0
  -49.4651   -1.2298  -24.1192 C   0  0  0  0  0  0  0  0  0  0  0  0
  -49.7420   -1.6194  -22.8058 C   0  0  0  0  0  0  0  0  0  0  0  0
  -50.3188   -0.7086  -21.9103 C   0  0  0  0  0  0  0  0  0  0  0  0
  -50.6043    0.6012  -22.3377 C   0  0  0  0  0  0  0  0  0  0  0  0
  -50.3358    0.9840  -23.6546 C   0  0  0  0  0  0  0  0  0  0  0  0
  -51.1619    1.5165  -21.4367 O   0  0  0  0  0  0  0  0  0  0  0  0
  -51.2202    1.2302  -20.0356 C   0  0  0  0  0  0  0  0  0  0  0  0
  -51.5739   -0.2382  -19.8081 C   0  0  0  0  0  0  0  0  0  0  0  0
  -50.6488   -1.0801  -20.5608 N   0  0  0  0  0  0  0  0  0  0  0  0
  -49.9276   -2.4516  -19.7774 S   0  0  0  0  0  0  0  0  0  0  0  0
  -48.1649   -2.2353  -19.6697 C   0  0  0  0  0  0  0  0  0  0  0  0
  -50.2449   -3.6995  -20.5535 O   0  0  0  0  0  0  0  0  0  0  0  0
  -50.4783   -2.5854  -18.3849 O   0  0  0  0  0  0  0  0  0  0  0  0
 17 18  1  0  0  0
 18 19  2  0  0  0
 19 20  1  0  0  0
 20 21  2  0  0  0
 21 22  1  0  0  0
 22 23  2  0  0  0
 22 24  1  0  0  0
 24 25  1  0  0  0
 25  1  1  0  0  0
  1  2  2  0  0  0
  1  3  1  0  0  0
  3  5  1  0  0  0
  5  6  2  0  0  0
  6  7  1  0  0  0
  7  8  2  0  0  0
  8  9  1  0  0  0
  9 10  2  0  0  0
 10 11  1  0  0  0
 11 12  2  0  0  0
 12 13  1  0  0  0
 13 14  2  0  0  0
 10 15  1  0  0  0
 15 16  1  0  0  0
 25 26  1  0  0  0
 26 27  1  0  0  0
 27 28  1  0  0  0
 28 29  1  0  0  0
 28 30  2  0  0  0
 28 31  2  0  0  0
 23 18  1  0  0  0
 14  5  1  0  0  0
 27 21  1  0  0  0
 16  8  1  0  0  0
 14  9  1  0  0  0
  3  4  1  0  0  0
M  END
>  <minimizedAffinity>
-8.73773

>  <minimizedRMSD>
1.50994

$$$$
ZINC000004878453 PubChem-92237773


 32 34  0  0  0  0  0  0  0  0999 V2000
  -49.2933   -1.1377  -25.8952 C   0  0  0  0  0  0  0  0  0  0  0  0
  -49.3035   -0.8469  -24.4325 C   0  0  0  0  0  0  0  0  0  0  0  0
  -48.2896   -1.3198  -23.5819 C   0  0  0  0  0  0  0  0  0  0  0  0
  -48.3359   -1.0269  -22.2169 C   0  0  0  0  0  0  0  0  0  0  0  0
  -49.3837   -0.2642  -21.6710 C   0  0  0  0  0  0  0  0  0  0  0  0
  -50.3974    0.2120  -22.5441 C   0  0  0  0  0  0  0  0  0  0  0  0
  -50.3486   -0.0837  -23.9081 C   0  0  0  0  0  0  0  0  0  0  0  0
  -51.4484    0.9826  -22.0551 C   0  0  0  0  0  0  0  0  0  0  0  0
  -51.5013    1.2918  -20.7016 C   0  0  0  0  0  0  0  0  0  0  0  0
  -52.5161    2.0624  -20.1316 C   0  0  0  0  0  0  0  0  0  0  0  0
  -53.4547    2.5193  -20.8375 O   0  0  0  0  0  0  0  0  0  0  0  0
  -52.4902    2.3237  -18.7982 N   0  0  0  0  0  0  0  0  0  0  0  0
  -51.5009    1.8575  -17.9873 C   0  0  0  0  0  0  0  0  0  0  0  0
  -51.5229    2.1284  -16.7590 O   0  0  0  0  0  0  0  0  0  0  0  0
  -50.4902    1.1013  -18.4916 N   0  0  0  0  0  0  0  0  0  0  0  0
  -50.4360    0.7889  -19.8136 C   0  0  0  0  0  0  0  0  0  0  0  0
  -49.4276    0.0178  -20.3241 N   0  0  0  0  0  0  0  0  0  0  0  0
  -47.1539   -2.1355  -24.1002 C   0  0  0  0  0  0  0  0  0  0  0  0
  -53.2105    2.8680  -18.4057 H   0  0  0  0  0  0  0  0  0  0  0  0
  -48.3843   -0.4749  -19.4168 C   0  0  0  0  0  0  0  0  0  0  0  0
  -48.5624   -1.9589  -19.0997 C   0  0  0  0  0  0  0  0  0  0  0  0
  -47.3386   -2.4613  -18.6529 O   0  0  0  0  0  0  0  0  0  0  0  0
  -47.0682   -1.9878  -17.8506 H   0  0  0  0  0  0  0  0  0  0  0  0
  -49.6437   -2.1845  -18.0377 C   0  0  0  0  0  0  0  0  0  0  0  0
  -50.7445   -2.8393  -18.5980 O   0  0  0  0  0  0  0  0  0  0  0  0
  -50.4701   -3.7098  -18.9266 H   0  0  0  0  0  0  0  0  0  0  0  0
  -49.1083   -2.9925  -16.8552 C   0  0  0  0  0  0  0  0  0  0  0  0
  -49.7191   -4.2485  -16.8006 O   0  0  0  0  0  0  0  0  0  0  0  0
  -50.6748   -4.1381  -16.6772 H   0  0  0  0  0  0  0  0  0  0  0  0
  -49.3419   -2.2429  -15.5550 C   0  0  0  0  0  0  0  0  0  0  0  0
  -49.8027   -3.1236  -14.5765 O   0  0  0  0  0  0  0  0  0  0  0  0
  -50.6375   -3.5225  -14.8678 H   0  0  0  0  0  0  0  0  0  0  0  0
  1  2  1  0  0  0
  2  3  2  0  0  0
  3  4  1  0  0  0
  4  5  2  0  0  0
  5  6  1  0  0  0
  6  7  2  0  0  0
  6  8  1  0  0  0
  8  9  2  0  0  0
  9 10  1  0  0  0
 10 11  2  0  0  0
 10 12  1  0  0  0
 12 13  1  0  0  0
 13 14  2  0  0  0
 13 15  1  0  0  0
 15 16  2  0  0  0
 16 17  1  0  0  0
 17 20  1  0  0  0
 21 20  1  0  0  0
 21 24  1  0  0  0
 24 27  1  0  0  0
 27 30  1  0  0  0
 30 31  1  0  0  0
 27 28  1  0  0  0
 24 25  1  0  0  0
 21 22  1  0  0  0
  3 18  1  0  0  0
  7  2  1  0  0  0
 17  5  1  0  0  0
 16  9  1  0  0  0
 12 19  1  0  0  0
 31 32  1  0  0  0
 28 29  1  0  0  0
 25 26  1  0  0  0
 22 23  1  0  0  0
M  END
>  <minimizedAffinity>
-8.69992

>  <minimizedRMSD>
1.06612

$$$$
ZINC000009112329 ZINC09112329 PubChem-40938212


 28 31  0  0  0  0  0  0  0  0999 V2000
  -52.3895    2.4704  -18.8578 N   0  0  0  0  0  0  0  0  0  0  0  0
  -52.4886    2.1431  -20.2505 C   0  0  0  0  0  0  0  0  0  0  0  0
  -53.4799    2.5656  -20.9041 O   0  0  0  0  0  0  0  0  0  0  0  0
  -52.9735    3.1942  -18.5346 H   0  0  0  0  0  0  0  0  0  0  0  0
  -51.4608    2.3703  -16.5496 C   0  0  0  0  0  0  0  0  0  0  0  0
  -50.6754    1.7009  -15.5909 C   0  0  0  0  0  0  0  0  0  0  0  0
  -49.9780    0.5586  -15.9670 C   0  0  0  0  0  0  0  0  0  0  0  0
  -50.0349    0.0783  -17.2369 C   0  0  0  0  0  0  0  0  0  0  0  0
  -50.8057    0.6932  -18.2153 C   0  0  0  0  0  0  0  0  0  0  0  0
  -51.5311    1.8573  -17.8833 C   0  0  0  0  0  0  0  0  0  0  0  0
  -49.2710   -1.0583  -17.3782 O   0  0  0  0  0  0  0  0  0  0  0  0
  -48.6369   -1.3815  -16.1403 C   0  0  0  0  0  0  0  0  0  0  0  0
  -49.0932   -0.3003  -15.1373 C   0  0  0  0  0  0  0  0  0  0  0  0
  -49.1023   -2.7446  -15.6724 C   0  0  0  0  0  0  0  0  0  0  0  0
  -52.1190    3.5345  -16.1241 O   0  0  0  0  0  0  0  0  0  0  0  0
  -51.0450    4.9647  -14.5267 C   0  0  0  0  0  0  0  0  0  0  0  0
  -51.4969    4.8016  -15.9646 C   0  0  0  0  0  0  0  0  0  0  0  0
  -51.4374    1.3715  -20.9296 C   0  0  0  0  0  0  0  0  0  0  0  0
  -51.5572    0.9607  -22.1882 C   0  0  0  0  0  0  0  0  0  0  0  0
  -50.4929    0.2004  -22.8530 C   0  0  0  0  0  0  0  0  0  0  0  0
  -49.5146   -0.5643  -22.2077 C   0  0  0  0  0  0  0  0  0  0  0  0
  -48.7680   -1.0536  -23.2566 C   0  0  0  0  0  0  0  0  0  0  0  0
  -47.6522   -1.8850  -23.2504 C   0  0  0  0  0  0  0  0  0  0  0  0
  -47.0907   -2.2313  -24.4924 C   0  0  0  0  0  0  0  0  0  0  0  0
  -47.6539   -1.7495  -25.6923 C   0  0  0  0  0  0  0  0  0  0  0  0
  -48.7846   -0.9133  -25.6662 C   0  0  0  0  0  0  0  0  0  0  0  0
  -49.3135   -0.5858  -24.4206 C   0  0  0  0  0  0  0  0  0  0  0  0
  -50.3476    0.1694  -24.1639 O   0  0  0  0  0  0  0  0  0  0  0  0
 16 17  1  0  0  0
 17 15  1  0  0  0
 15  5  1  0  0  0
  5  6  2  0  0  0
  6  7  1  0  0  0
  7  8  2  0  0  0
  8  9  1  0  0  0
  8 11  1  0  0  0
  9 10  2  0  0  0
 10  1  1  0  0  0
 10  5  1  0  0  0
  1  2  1  0  0  0
  2  3  2  0  0  0
  2 18  1  0  0  0
 18 19  2  0  0  0
 19 20  1  0  0  0
 20 21  2  0  0  0
 21 22  1  0  0  0
 22 23  2  0  0  0
 23 24  1  0  0  0
 24 25  2  0  0  0
 25 26  1  0  0  0
 26 27  2  0  0  0
 27 28  1  0  0  0
 27 22  1  0  0  0
 28 20  1  0  0  0
 11 12  1  0  0  0
 12 13  1  0  0  0
 12 14  1  0  0  0
 13  7  1  0  0  0
  1  4  1  0  0  0
M  END
>  <minimizedAffinity>
-8.58758

>  <minimizedRMSD>
1.08357

$$$$
ZINC000016045159 CSC026732198 MCULE-2825595349 MolPort-005-315-093


 34 37  0  0  0  0  0  0  0  0999 V2000
  -51.1204   -0.0091  -19.4356 C   0  0  0  0  0  0  0  0  0  0  0  0
  -51.0139    0.7345  -18.2392 C   0  0  0  0  0  0  0  0  0  0  0  0
  -51.7735    1.9211  -18.0992 C   0  0  0  0  0  0  0  0  0  0  0  0
  -51.6809    2.6793  -16.9288 C   0  0  0  0  0  0  0  0  0  0  0  0
  -50.8340    2.2731  -15.8951 C   0  0  0  0  0  0  0  0  0  0  0  0
  -50.0707    1.1096  -16.0276 C   0  0  0  0  0  0  0  0  0  0  0  0
  -50.1621    0.3451  -17.1946 C   0  0  0  0  0  0  0  0  0  0  0  0
  -52.5927    2.3298  -19.1029 N   0  0  0  0  0  0  0  0  0  0  0  0
  -52.7104    1.6253  -20.2582 C   0  0  0  0  0  0  0  0  0  0  0  0
  -53.4789    2.0334  -21.1666 O   0  0  0  0  0  0  0  0  0  0  0  0
  -51.9819    0.4499  -20.4400 C   0  0  0  0  0  0  0  0  0  0  0  0
  -53.1141    3.1573  -18.9901 H   0  0  0  0  0  0  0  0  0  0  0  0
  -50.3414   -1.9131  -20.9423 N   0  0  0  0  0  0  0  0  0  0  0  0
  -50.3820   -1.2764  -19.6572 C   0  0  0  0  0  0  0  0  0  0  0  0
  -49.8306   -1.8532  -18.6829 O   0  0  0  0  0  0  0  0  0  0  0  0
  -50.2970   -2.8966  -20.9515 H   0  0  0  0  0  0  0  0  0  0  0  0
  -50.8612   -1.3371  -24.5955 C   0  0  0  0  0  0  0  0  0  0  0  0
  -50.8563   -1.9367  -23.3273 C   0  0  0  0  0  0  0  0  0  0  0  0
  -50.3594   -1.2521  -22.2137 C   0  0  0  0  0  0  0  0  0  0  0  0
  -49.8350    0.0385  -22.3772 C   0  0  0  0  0  0  0  0  0  0  0  0
  -49.8347    0.6448  -23.6350 C   0  0  0  0  0  0  0  0  0  0  0  0
  -50.3477   -0.0395  -24.7396 C   0  0  0  0  0  0  0  0  0  0  0  0
  -51.4066   -1.4553  -27.1186 C   0  0  0  0  0  0  0  0  0  0  0  0
  -51.3980   -2.0690  -25.7592 C   0  0  0  0  0  0  0  0  0  0  0  0
  -51.8601   -3.2326  -25.6175 O   0  0  0  0  0  0  0  0  0  0  0  0
  -49.0204    0.5959  -14.7180 S   0  0  0  0  0  0  0  0  0  0  0  0
  -47.8315    1.5141  -14.6561 O   0  0  0  0  0  0  0  0  0  0  0  0
  -48.5362   -0.8045  -14.9805 O   0  0  0  0  0  0  0  0  0  0  0  0
  -49.8860    0.6563  -13.2154 N   0  0  0  0  0  0  0  0  0  0  0  0
  -48.9410    0.3350  -12.1432 C   0  0  0  0  0  0  0  0  0  0  0  0
  -49.7000    0.1774  -10.8232 C   0  0  0  0  0  0  0  0  0  0  0  0
  -50.6257   -0.8774  -10.9298 O   0  0  0  0  0  0  0  0  0  0  0  0
  -51.5871   -0.4892  -11.8815 C   0  0  0  0  0  0  0  0  0  0  0  0
  -50.9313   -0.3692  -13.2591 C   0  0  0  0  0  0  0  0  0  0  0  0
 23 24  1  0  0  0
 24 17  1  0  0  0
 17 18  2  0  0  0
 18 19  1  0  0  0
 19 13  1  0  0  0
 13 14  1  0  0  0
 14  1  1  0  0  0
  1  2  1  0  0  0
  2  3  1  0  0  0
  3  4  2  0  0  0
  4  5  1  0  0  0
  5  6  2  0  0  0
  6 26  1  0  0  0
 26 29  1  0  0  0
 29 30  1  0  0  0
 30 31  1  0  0  0
 31 32  1  0  0  0
 32 33  1  0  0  0
 33 34  1  0  0  0
 26 27  2  0  0  0
 26 28  2  0  0  0
  6  7  1  0  0  0
  3  8  1  0  0  0
  8  9  1  0  0  0
  9 10  2  0  0  0
  9 11  1  0  0  0
 14 15  2  0  0  0
 19 20  2  0  0  0
 20 21  1  0  0  0
 21 22  2  0  0  0
 24 25  2  0  0  0
 22 17  1  0  0  0
 11  1  2  0  0  0
  7  2  2  0  0  0
 34 29  1  0  0  0
 13 16  1  0  0  0
  8 12  1  0  0  0
M  END
>  <minimizedAffinity>
-8.58565

>  <minimizedRMSD>
1.53443

$$$$
ZINC000031810633


 31 35  0  0  0  0  0  0  0  0999 V2000
  -47.5347   -1.3900  -24.3582 C   0  0  0  0  0  0  0  0  0  0  0  0
  -48.4911   -1.1881  -23.2346 C   0  0  0  0  0  0  0  0  0  0  0  0
  -49.4513   -0.2467  -23.2392 N   0  0  0  0  0  0  0  0  0  0  0  0
  -50.1120   -0.3432  -22.0968 N   0  0  0  0  0  0  0  0  0  0  0  0
  -49.6096   -1.3616  -21.3621 C   0  0  0  0  0  0  0  0  0  0  0  0
  -48.5428   -1.9234  -22.0622 C   0  0  0  0  0  0  0  0  0  0  0  0
  -47.6353   -3.0775  -21.7392 C   0  0  0  0  0  0  0  0  0  0  0  0
  -47.3379   -3.3800  -19.9701 S   0  0  0  0  0  0  0  0  0  0  0  0
  -49.0130   -4.0042  -19.7096 C   0  0  0  0  0  0  0  0  0  0  0  0
  -49.8995   -2.8961  -19.2775 C   0  0  0  0  0  0  0  0  0  0  0  0
  -50.4520   -2.9770  -18.1504 O   0  0  0  0  0  0  0  0  0  0  0  0
  -50.1779   -1.7610  -20.1029 N   0  0  0  0  0  0  0  0  0  0  0  0
  -50.8704   -1.1555  -19.7522 H   0  0  0  0  0  0  0  0  0  0  0  0
  -51.2329    0.4949  -21.7802 C   0  0  0  0  0  0  0  0  0  0  0  0
  -52.1127    0.8609  -22.7608 N   0  0  0  0  0  0  0  0  0  0  0  0
  -53.1776    1.6837  -22.4980 C   0  0  0  0  0  0  0  0  0  0  0  0
  -53.3795    2.1761  -21.2392 N   0  0  0  0  0  0  0  0  0  0  0  0
  -52.5011    1.8263  -20.2696 C   0  0  0  0  0  0  0  0  0  0  0  0
  -52.5022    2.2515  -19.0006 N   0  0  0  0  0  0  0  0  0  0  0  0
  -51.3887    1.6571  -18.4911 C   0  0  0  0  0  0  0  0  0  0  0  0
  -50.7092    0.8954  -19.3919 N   0  0  0  0  0  0  0  0  0  0  0  0
  -51.4474    1.0163  -20.5040 C   0  0  0  0  0  0  0  0  0  0  0  0
  -53.1457    2.8444  -18.5495 H   0  0  0  0  0  0  0  0  0  0  0  0
  -47.8448   -4.3256  -22.5560 C   0  0  0  0  0  0  0  0  0  0  0  0
  -46.7153   -5.0806  -22.8942 C   0  0  0  0  0  0  0  0  0  0  0  0
  -46.8424   -6.2513  -23.6458 C   0  0  0  0  0  0  0  0  0  0  0  0
  -48.1038   -6.6779  -24.0653 C   0  0  0  0  0  0  0  0  0  0  0  0
  -48.2274   -7.8128  -24.7942 F   0  0  0  0  0  0  0  0  0  0  0  0
  -49.2386   -5.9349  -23.7322 C   0  0  0  0  0  0  0  0  0  0  0  0
  -49.1177   -4.7625  -22.9801 C   0  0  0  0  0  0  0  0  0  0  0  0
  -50.2403   -4.0669  -22.6730 F   0  0  0  0  0  0  0  0  0  0  0  0
  1  2  1  0  0  0
  2  3  2  0  0  0
  3  4  1  0  0  0
  4 14  1  0  0  0
 14 15  2  0  0  0
 15 16  1  0  0  0
 16 17  2  0  0  0
 17 18  1  0  0  0
 18 19  1  0  0  0
 19 20  1  0  0  0
 20 21  2  0  0  0
 21 22  1  0  0  0
  4  5  1  0  0  0
  5  6  2  0  0  0
  6  7  1  0  0  0
  7 24  1  0  0  0
 24 25  2  0  0  0
 25 26  1  0  0  0
 26 27  2  0  0  0
 27 28  1  0  0  0
 27 29  1  0  0  0
 29 30  2  0  0  0
 30 31  1  0  0  0
  7  8  1  0  0  0
  8  9  1  0  0  0
  9 10  1  0  0  0
 10 11  2  0  0  0
 10 12  1  0  0  0
  6  2  1  0  0  0
 30 24  1  0  0  0
 22 14  1  0  0  0
 12  5  1  0  0  0
 22 18  2  0  0  0
 19 23  1  0  0  0
 12 13  1  0  0  0
M  END
>  <minimizedAffinity>
-8.54619

>  <minimizedRMSD>
0.48711

$$$$
ZINC000005372519 ZINC05372519 PubChem-92261928


 32 34  0  0  0  0  0  0  0  0999 V2000
  -49.2008   -0.8300  -25.5724 C   0  0  0  0  0  0  0  0  0  0  0  0
  -49.2414   -0.6893  -24.0883 C   0  0  0  0  0  0  0  0  0  0  0  0
  -50.2181    0.1298  -23.5186 C   0  0  0  0  0  0  0  0  0  0  0  0
  -50.2926    0.2884  -22.1330 C   0  0  0  0  0  0  0  0  0  0  0  0
  -51.2663    1.1264  -21.6016 C   0  0  0  0  0  0  0  0  0  0  0  0
  -51.3440    1.3118  -20.2269 C   0  0  0  0  0  0  0  0  0  0  0  0
  -52.2893    2.1587  -19.6359 C   0  0  0  0  0  0  0  0  0  0  0  0
  -53.1256    2.7838  -20.3419 O   0  0  0  0  0  0  0  0  0  0  0  0
  -52.3033    2.3166  -18.2851 N   0  0  0  0  0  0  0  0  0  0  0  0
  -51.4255    1.6824  -17.4607 C   0  0  0  0  0  0  0  0  0  0  0  0
  -51.4878    1.8726  -16.2186 O   0  0  0  0  0  0  0  0  0  0  0  0
  -50.4566    0.8203  -17.9781 C   0  0  0  0  0  0  0  0  0  0  0  0
  -50.3821    0.5957  -19.3583 C   0  0  0  0  0  0  0  0  0  0  0  0
  -49.4534   -0.2487  -19.9145 N   0  0  0  0  0  0  0  0  0  0  0  0
  -49.3796   -0.3886  -21.2826 C   0  0  0  0  0  0  0  0  0  0  0  0
  -48.3923   -1.1947  -21.8760 C   0  0  0  0  0  0  0  0  0  0  0  0
  -48.3178   -1.3504  -23.2617 C   0  0  0  0  0  0  0  0  0  0  0  0
  -47.2570   -2.2332  -23.8254 C   0  0  0  0  0  0  0  0  0  0  0  0
  -52.9765    2.9145  -17.8870 H   0  0  0  0  0  0  0  0  0  0  0  0
  -48.5207   -0.9819  -19.0412 C   0  0  0  0  0  0  0  0  0  0  0  0
  -49.0695   -2.3495  -18.6061 C   0  0  0  0  0  0  0  0  0  0  0  0
  -50.4382   -2.4408  -18.8734 O   0  0  0  0  0  0  0  0  0  0  0  0
  -50.5863   -2.3711  -19.8294 H   0  0  0  0  0  0  0  0  0  0  0  0
  -48.3110   -3.5085  -19.2530 C   0  0  0  0  0  0  0  0  0  0  0  0
  -46.9778   -3.4987  -18.8308 O   0  0  0  0  0  0  0  0  0  0  0  0
  -46.9424   -3.6168  -17.8687 H   0  0  0  0  0  0  0  0  0  0  0  0
  -48.9557   -4.8564  -18.9220 C   0  0  0  0  0  0  0  0  0  0  0  0
  -48.7229   -5.1974  -17.5880 O   0  0  0  0  0  0  0  0  0  0  0  0
  -47.7685   -5.2837  -17.4382 H   0  0  0  0  0  0  0  0  0  0  0  0
  -48.4197   -5.9508  -19.8295 C   0  0  0  0  0  0  0  0  0  0  0  0
  -49.4773   -6.6994  -20.3474 O   0  0  0  0  0  0  0  0  0  0  0  0
  -49.9728   -7.1057  -19.6192 H   0  0  0  0  0  0  0  0  0  0  0  0
  1  2  1  0  0  0
  2  3  2  0  0  0
  3  4  1  0  0  0
  4  5  1  0  0  0
  5  6  2  0  0  0
  6  7  1  0  0  0
  6 13  1  0  0  0
  7  8  2  0  0  0
  7  9  1  0  0  0
  9 10  1  0  0  0
 10 11  2  0  0  0
 10 12  1  0  0  0
 12 13  2  0  0  0
 13 14  1  0  0  0
 14 15  1  0  0  0
 14 20  1  0  0  0
 15 16  1  0  0  0
 15  4  2  0  0  0
 16 17  2  0  0  0
 17 18  1  0  0  0
 17  2  1  0  0  0
 21 20  1  0  0  0
 21 24  1  0  0  0
 21 22  1  0  0  0
 24 27  1  0  0  0
 24 25  1  0  0  0
 27 30  1  0  0  0
 27 28  1  0  0  0
 30 31  1  0  0  0
  9 19  1  0  0  0
 31 32  1  0  0  0
 28 29  1  0  0  0
 25 26  1  0  0  0
 22 23  1  0  0  0
M  END
>  <minimizedAffinity>
-8.53019

>  <minimizedRMSD>
0.64422

$$$$
ZINC000032899841 ZINC32899841 PubChem-40135872


 35 38  0  0  0  0  0  0  0  0999 V2000
  -49.7842   -0.6067  -18.9831 C   0  0  0  0  0  0  0  0  0  0  0  0
  -48.7189   -0.5170  -18.3166 O   0  0  0  0  0  0  0  0  0  0  0  0
  -50.8754    0.3160  -18.7475 N   0  0  0  0  0  0  0  0  0  0  0  0
  -52.0045    0.3335  -19.6885 C   0  0  0  0  0  0  0  0  0  0  0  0
  -52.5891    1.7044  -19.8309 C   0  0  0  0  0  0  0  0  0  0  0  0
  -53.2123    2.0135  -20.8785 O   0  0  0  0  0  0  0  0  0  0  0  0
  -52.5153    2.6271  -18.7442 N   0  0  0  0  0  0  0  0  0  0  0  0
  -51.7385    2.3190  -17.5886 C   0  0  0  0  0  0  0  0  0  0  0  0
  -50.9183    1.1747  -17.5795 C   0  0  0  0  0  0  0  0  0  0  0  0
  -50.1582    0.8975  -16.4324 C   0  0  0  0  0  0  0  0  0  0  0  0
  -50.2072    1.7454  -15.3239 C   0  0  0  0  0  0  0  0  0  0  0  0
  -51.0275    2.8811  -15.3357 C   0  0  0  0  0  0  0  0  0  0  0  0
  -51.7802    3.1696  -16.4810 C   0  0  0  0  0  0  0  0  0  0  0  0
  -53.0033    3.4808  -18.7928 H   0  0  0  0  0  0  0  0  0  0  0  0
  -51.0410    3.8271  -14.1697 C   0  0  0  0  0  0  0  0  0  0  0  0
  -49.8756    4.5729  -14.1715 F   0  0  0  0  0  0  0  0  0  0  0  0
  -52.1258    4.6818  -14.2618 F   0  0  0  0  0  0  0  0  0  0  0  0
  -51.1304    3.1314  -12.9766 F   0  0  0  0  0  0  0  0  0  0  0  0
  -49.8460   -1.6658  -20.0423 C   0  0  0  0  0  0  0  0  0  0  0  0
  -50.2113   -3.0168  -19.4514 C   0  0  0  0  0  0  0  0  0  0  0  0
  -50.7647   -1.2954  -21.0623 O   0  0  0  0  0  0  0  0  0  0  0  0
  -50.7265   -1.8590  -22.3396 C   0  0  0  0  0  0  0  0  0  0  0  0
  -51.0697   -3.0586  -22.5258 O   0  0  0  0  0  0  0  0  0  0  0  0
  -50.0049    0.3972  -23.1064 C   0  0  0  0  0  0  0  0  0  0  0  0
  -50.2419   -1.0525  -23.4976 C   0  0  0  0  0  0  0  0  0  0  0  0
  -49.0432   -1.6460  -24.0901 N   0  0  0  0  0  0  0  0  0  0  0  0
  -48.9575   -2.2972  -25.2618 C   0  0  0  0  0  0  0  0  0  0  0  0
  -49.9576   -2.5488  -26.2000 C   0  0  0  0  0  0  0  0  0  0  0  0
  -49.5937   -3.2828  -27.3446 C   0  0  0  0  0  0  0  0  0  0  0  0
  -48.2667   -3.7384  -27.5174 C   0  0  0  0  0  0  0  0  0  0  0  0
  -47.2827   -3.4696  -26.5478 C   0  0  0  0  0  0  0  0  0  0  0  0
  -47.6750   -2.7435  -25.4276 C   0  0  0  0  0  0  0  0  0  0  0  0
  -46.9548   -2.3874  -24.3906 O   0  0  0  0  0  0  0  0  0  0  0  0
  -47.7817   -1.7341  -23.5911 C   0  0  0  0  0  0  0  0  0  0  0  0
  -47.4311   -1.2548  -22.4797 O   0  0  0  0  0  0  0  0  0  0  0  0
 25 24  1  0  0  0
 25 22  1  0  0  0
 25 26  1  0  0  0
 22 23  2  0  0  0
 22 21  1  0  0  0
 19 21  1  0  0  0
 19 20  1  0  0  0
 19  1  1  0  0  0
  1  2  2  0  0  0
  1  3  1  0  0  0
  3  4  1  0  0  0
  4  5  1  0  0  0
  5  6  2  0  0  0
  5  7  1  0  0  0
  7  8  1  0  0  0
  8  9  2  0  0  0
  9 10  1  0  0  0
  9  3  1  0  0  0
 10 11  2  0  0  0
 11 12  1  0  0  0
 12 13  2  0  0  0
 12 15  1  0  0  0
 13  8  1  0  0  0
 15 16  1  0  0  0
 15 17  1  0  0  0
 15 18  1  0  0  0
 26 27  1  0  0  0
 27 28  2  0  0  0
 28 29  1  0  0  0
 29 30  2  0  0  0
 30 31  1  0  0  0
 31 32  2  0  0  0
 32 33  1  0  0  0
 32 27  1  0  0  0
 33 34  1  0  0  0
 34 35  2  0  0  0
 34 26  1  0  0  0
  7 14  1  0  0  0
M  END
>  <minimizedAffinity>
-8.52158

>  <minimizedRMSD>
2.10787

$$$$
ZINC000014495283


 33 36  0  0  0  0  0  0  0  0999 V2000
  -51.0171    0.0014  -19.2544 C   0  0  0  0  0  0  0  0  0  0  0  0
  -51.8936    0.3768  -20.2804 C   0  0  0  0  0  0  0  0  0  0  0  0
  -52.6782    1.5225  -20.1506 C   0  0  0  0  0  0  0  0  0  0  0  0
  -53.4597    1.8554  -21.0785 O   0  0  0  0  0  0  0  0  0  0  0  0
  -52.6016    2.2787  -19.0250 N   0  0  0  0  0  0  0  0  0  0  0  0
  -51.7696    1.9518  -18.0020 C   0  0  0  0  0  0  0  0  0  0  0  0
  -51.7188    2.7627  -16.8649 C   0  0  0  0  0  0  0  0  0  0  0  0
  -50.8588    2.4415  -15.8124 C   0  0  0  0  0  0  0  0  0  0  0  0
  -50.0428    1.3087  -15.8916 C   0  0  0  0  0  0  0  0  0  0  0  0
  -50.0884    0.4951  -17.0271 C   0  0  0  0  0  0  0  0  0  0  0  0
  -50.9530    0.7984  -18.0898 C   0  0  0  0  0  0  0  0  0  0  0  0
  -53.1630    3.0838  -18.9485 H   0  0  0  0  0  0  0  0  0  0  0  0
  -50.1721   -1.9450  -20.6679 N   0  0  0  0  0  0  0  0  0  0  0  0
  -50.2194   -1.2386  -19.4202 C   0  0  0  0  0  0  0  0  0  0  0  0
  -49.6217   -1.7316  -18.4272 O   0  0  0  0  0  0  0  0  0  0  0  0
  -50.0842   -2.9245  -20.6227 H   0  0  0  0  0  0  0  0  0  0  0  0
  -51.4301   -3.4203  -22.7855 C   0  0  0  0  0  0  0  0  0  0  0  0
  -50.8352   -2.0715  -23.0353 C   0  0  0  0  0  0  0  0  0  0  0  0
  -50.8743   -1.5069  -24.3247 C   0  0  0  0  0  0  0  0  0  0  0  0
  -51.6167   -2.3480  -25.6777 Cl  0  0  0  0  0  0  0  0  0  0  0  0
  -50.3110   -0.2488  -24.5529 C   0  0  0  0  0  0  0  0  0  0  0  0
  -49.7065    0.4517  -23.5092 C   0  0  0  0  0  0  0  0  0  0  0  0
  -49.6672   -0.1024  -22.2297 C   0  0  0  0  0  0  0  0  0  0  0  0
  -50.2408   -1.3579  -21.9769 C   0  0  0  0  0  0  0  0  0  0  0  0
  -48.9576    0.9028  -14.5737 S   0  0  0  0  0  0  0  0  0  0  0  0
  -49.0111    1.9827  -13.5277 O   0  0  0  0  0  0  0  0  0  0  0  0
  -47.5567    0.8088  -15.1102 O   0  0  0  0  0  0  0  0  0  0  0  0
  -49.4248   -0.6276  -13.8840 N   0  0  0  0  0  0  0  0  0  0  0  0
  -50.8676   -0.6402  -13.5945 C   0  0  0  0  0  0  0  0  0  0  0  0
  -51.1922    0.0839  -12.2833 C   0  0  0  0  0  0  0  0  0  0  0  0
  -50.4703   -0.4975  -11.2303 O   0  0  0  0  0  0  0  0  0  0  0  0
  -49.1248   -0.1714  -11.4567 C   0  0  0  0  0  0  0  0  0  0  0  0
  -48.6121   -0.9190  -12.6927 C   0  0  0  0  0  0  0  0  0  0  0  0
 17 18  1  0  0  0
 18 19  2  0  0  0
 19 20  1  0  0  0
 19 21  1  0  0  0
 21 22  2  0  0  0
 22 23  1  0  0  0
 23 24  2  0  0  0
 24 13  1  0  0  0
 13 14  1  0  0  0
 14 15  2  0  0  0
 14  1  1  0  0  0
  1  2  2  0  0  0
  2  3  1  0  0  0
  3  4  2  0  0  0
  3  5  1  0  0  0
  5  6  1  0  0  0
  6  7  2  0  0  0
  7  8  1  0  0  0
  8  9  2  0  0  0
  9 25  1  0  0  0
 25 26  2  0  0  0
 25 27  2  0  0  0
 25 28  1  0  0  0
 28 29  1  0  0  0
 29 30  1  0  0  0
 30 31  1  0  0  0
 31 32  1  0  0  0
 32 33  1  0  0  0
  9 10  1  0  0  0
 10 11  2  0  0  0
 24 18  1  0  0  0
 11  1  1  0  0  0
 11  6  1  0  0  0
 33 28  1  0  0  0
 13 16  1  0  0  0
  5 12  1  0  0  0
M  END
>  <minimizedAffinity>
-8.51355

>  <minimizedRMSD>
1.36880

$$$$
ZINC000031807721


 31 35  0  0  0  0  0  0  0  0999 V2000
  -47.4164   -1.2626  -24.3236 C   0  0  0  0  0  0  0  0  0  0  0  0
  -48.4023   -1.1022  -23.2190 C   0  0  0  0  0  0  0  0  0  0  0  0
  -49.3744   -0.1731  -23.2228 N   0  0  0  0  0  0  0  0  0  0  0  0
  -50.0667   -0.3141  -22.1040 N   0  0  0  0  0  0  0  0  0  0  0  0
  -49.5730   -1.3496  -21.3873 C   0  0  0  0  0  0  0  0  0  0  0  0
  -48.4770   -1.8737  -22.0716 C   0  0  0  0  0  0  0  0  0  0  0  0
  -47.5800   -3.0432  -21.7745 C   0  0  0  0  0  0  0  0  0  0  0  0
  -47.2950   -3.3588  -20.0047 S   0  0  0  0  0  0  0  0  0  0  0  0
  -48.9636   -4.0125  -19.7631 C   0  0  0  0  0  0  0  0  0  0  0  0
  -49.8769   -2.9253  -19.3344 C   0  0  0  0  0  0  0  0  0  0  0  0
  -50.4451   -3.0283  -18.2170 O   0  0  0  0  0  0  0  0  0  0  0  0
  -50.1667   -1.7888  -20.1536 N   0  0  0  0  0  0  0  0  0  0  0  0
  -50.8913   -1.2132  -19.8176 H   0  0  0  0  0  0  0  0  0  0  0  0
  -51.2061    0.5011  -21.7935 C   0  0  0  0  0  0  0  0  0  0  0  0
  -52.0857    0.8524  -22.7795 N   0  0  0  0  0  0  0  0  0  0  0  0
  -53.1682    1.6538  -22.5225 C   0  0  0  0  0  0  0  0  0  0  0  0
  -53.3887    2.1389  -21.2640 N   0  0  0  0  0  0  0  0  0  0  0  0
  -52.5107    1.8038  -20.2889 C   0  0  0  0  0  0  0  0  0  0  0  0
  -52.5289    2.2257  -19.0189 N   0  0  0  0  0  0  0  0  0  0  0  0
  -51.4079    1.6517  -18.5029 C   0  0  0  0  0  0  0  0  0  0  0  0
  -50.7073    0.9057  -19.4005 N   0  0  0  0  0  0  0  0  0  0  0  0
  -51.4398    1.0149  -20.5175 C   0  0  0  0  0  0  0  0  0  0  0  0
  -53.1870    2.8050  -18.5710 H   0  0  0  0  0  0  0  0  0  0  0  0
  -47.8784   -4.2828  -22.5723 C   0  0  0  0  0  0  0  0  0  0  0  0
  -46.8549   -5.2121  -22.7910 C   0  0  0  0  0  0  0  0  0  0  0  0
  -47.1056   -6.3785  -23.5199 C   0  0  0  0  0  0  0  0  0  0  0  0
  -48.3831   -6.6222  -24.0321 C   0  0  0  0  0  0  0  0  0  0  0  0
  -48.6310   -7.7801  -24.7560 O   0  0  0  0  0  0  0  0  0  0  0  0
  -49.4110   -5.7007  -23.8145 C   0  0  0  0  0  0  0  0  0  0  0  0
  -49.1610   -4.5347  -23.0859 C   0  0  0  0  0  0  0  0  0  0  0  0
  -47.9419   -8.3980  -24.9019 H   0  0  0  0  0  0  0  0  0  0  0  0
  1  2  1  0  0  0
  2  3  2  0  0  0
  3  4  1  0  0  0
  4 14  1  0  0  0
 14 15  2  0  0  0
 15 16  1  0  0  0
 16 17  2  0  0  0
 17 18  1  0  0  0
 18 19  1  0  0  0
 19 20  1  0  0  0
 20 21  2  0  0  0
 21 22  1  0  0  0
  4  5  1  0  0  0
  5  6  2  0  0  0
  6  7  1  0  0  0
  7 24  1  0  0  0
 24 25  2  0  0  0
 25 26  1  0  0  0
 26 27  2  0  0  0
 27 28  1  0  0  0
 27 29  1  0  0  0
 29 30  2  0  0  0
  7  8  1  0  0  0
  8  9  1  0  0  0
  9 10  1  0  0  0
 10 11  2  0  0  0
 10 12  1  0  0  0
  6  2  1  0  0  0
 30 24  1  0  0  0
 22 14  1  0  0  0
 12  5  1  0  0  0
 22 18  2  0  0  0
 19 23  1  0  0  0
 28 31  1  0  0  0
 12 13  1  0  0  0
M  END
>  <minimizedAffinity>
-8.48751

>  <minimizedRMSD>
0.54456

$$$$
ZINC000031809867


 31 35  0  0  0  0  0  0  0  0999 V2000
  -47.3290   -1.5248  -23.3417 C   0  0  0  0  0  0  0  0  0  0  0  0
  -48.2421   -1.3307  -22.1814 C   0  0  0  0  0  0  0  0  0  0  0  0
  -49.1525   -0.3435  -22.1121 N   0  0  0  0  0  0  0  0  0  0  0  0
  -49.7912   -0.4688  -20.9600 N   0  0  0  0  0  0  0  0  0  0  0  0
  -49.3257   -1.5499  -20.2935 C   0  0  0  0  0  0  0  0  0  0  0  0
  -48.3033   -2.1238  -21.0480 C   0  0  0  0  0  0  0  0  0  0  0  0
  -47.4684   -3.3544  -20.8264 C   0  0  0  0  0  0  0  0  0  0  0  0
  -47.1073   -3.7293  -19.0822 S   0  0  0  0  0  0  0  0  0  0  0  0
  -48.7981   -4.2834  -18.7599 C   0  0  0  0  0  0  0  0  0  0  0  0
  -49.6161   -3.1522  -18.2592 C   0  0  0  0  0  0  0  0  0  0  0  0
  -50.1282   -3.2461  -17.1142 O   0  0  0  0  0  0  0  0  0  0  0  0
  -49.8786   -1.9812  -19.0382 N   0  0  0  0  0  0  0  0  0  0  0  0
  -50.5473   -1.3708  -18.6515 H   0  0  0  0  0  0  0  0  0  0  0  0
  -50.8580    0.4080  -20.5697 C   0  0  0  0  0  0  0  0  0  0  0  0
  -51.7929    0.7995  -21.4871 N   0  0  0  0  0  0  0  0  0  0  0  0
  -52.8077    1.6597  -21.1545 C   0  0  0  0  0  0  0  0  0  0  0  0
  -52.9017    2.1645  -19.8880 N   0  0  0  0  0  0  0  0  0  0  0  0
  -51.9684    1.7890  -18.9814 C   0  0  0  0  0  0  0  0  0  0  0  0
  -51.8634    2.2202  -17.7188 N   0  0  0  0  0  0  0  0  0  0  0  0
  -50.7369    1.5904  -17.2863 C   0  0  0  0  0  0  0  0  0  0  0  0
  -50.1503    0.8016  -18.2280 N   0  0  0  0  0  0  0  0  0  0  0  0
  -50.9623    0.9422  -19.2849 C   0  0  0  0  0  0  0  0  0  0  0  0
  -52.4522    2.8372  -17.2270 H   0  0  0  0  0  0  0  0  0  0  0  0
  -47.8912   -4.5528  -21.6306 C   0  0  0  0  0  0  0  0  0  0  0  0
  -47.0135   -5.6369  -21.7470 C   0  0  0  0  0  0  0  0  0  0  0  0
  -47.3839   -6.7684  -22.4798 C   0  0  0  0  0  0  0  0  0  0  0  0
  -48.6362   -6.8223  -23.0980 C   0  0  0  0  0  0  0  0  0  0  0  0
  -49.5192   -5.7451  -22.9832 C   0  0  0  0  0  0  0  0  0  0  0  0
  -50.7634   -5.7989  -23.5957 O   0  0  0  0  0  0  0  0  0  0  0  0
  -49.1494   -4.6139  -22.2509 C   0  0  0  0  0  0  0  0  0  0  0  0
  -51.0115   -6.5573  -24.0868 H   0  0  0  0  0  0  0  0  0  0  0  0
  1  2  1  0  0  0
  2  3  2  0  0  0
  3  4  1  0  0  0
  4 14  1  0  0  0
 14 15  2  0  0  0
 15 16  1  0  0  0
 16 17  2  0  0  0
 17 18  1  0  0  0
 18 19  1  0  0  0
 19 20  1  0  0  0
 20 21  2  0  0  0
 21 22  1  0  0  0
  4  5  1  0  0  0
  5  6  2  0  0  0
  6  7  1  0  0  0
  7 24  1  0  0  0
 24 25  2  0  0  0
 25 26  1  0  0  0
 26 27  2  0  0  0
 27 28  1  0  0  0
 28 29  1  0  0  0
 28 30  2  0  0  0
  7  8  1  0  0  0
  8  9  1  0  0  0
  9 10  1  0  0  0
 10 11  2  0  0  0
 10 12  1  0  0  0
  6  2  1  0  0  0
 30 24  1  0  0  0
 22 14  1  0  0  0
 12  5  1  0  0  0
 22 18  2  0  0  0
 19 23  1  0  0  0
 29 31  1  0  0  0
 12 13  1  0  0  0
M  END
>  <minimizedAffinity>
-8.48628

>  <minimizedRMSD>
1.00986

$$$$
ZINC000021788064 ZINC21788064


 35 38  0  0  0  0  0  0  0  0999 V2000
  -46.8296   -1.6694  -22.4383 C   0  0  0  0  0  0  0  0  0  0  0  0
  -47.9689   -1.0433  -21.7103 C   0  0  0  0  0  0  0  0  0  0  0  0
  -49.1847   -0.6115  -22.2444 C   0  0  0  0  0  0  0  0  0  0  0  0
  -49.8090    0.0040  -21.1502 C   0  0  0  0  0  0  0  0  0  0  0  0
  -49.0216   -0.1390  -20.0569 N   0  0  0  0  0  0  0  0  0  0  0  0
  -47.9048   -0.7589  -20.3992 N   0  0  0  0  0  0  0  0  0  0  0  0
  -51.0404    0.7487  -21.1158 N   0  0  0  0  0  0  0  0  0  0  0  0
  -51.8590    1.2391  -22.1813 C   0  0  0  0  0  0  0  0  0  0  0  0
  -52.9110    1.8690  -21.9014 O   0  0  0  0  0  0  0  0  0  0  0  0
  -51.5110    1.0386  -23.6062 C   0  0  0  0  0  0  0  0  0  0  0  0
  -51.4109   -0.7305  -23.9206 S   0  0  0  0  0  0  0  0  0  0  0  0
  -49.6102   -0.6617  -23.7037 C   0  0  0  0  0  0  0  0  0  0  0  0
  -51.3732    0.9537  -20.2122 H   0  0  0  0  0  0  0  0  0  0  0  0
  -49.2699    0.3211  -18.7127 C   0  0  0  0  0  0  0  0  0  0  0  0
  -50.5120    0.8600  -18.3385 C   0  0  0  0  0  0  0  0  0  0  0  0
  -50.7375    1.2885  -17.0275 C   0  0  0  0  0  0  0  0  0  0  0  0
  -49.7233    1.1798  -16.0735 C   0  0  0  0  0  0  0  0  0  0  0  0
  -48.4850    0.6417  -16.4309 C   0  0  0  0  0  0  0  0  0  0  0  0
  -48.2608    0.2135  -17.7422 C   0  0  0  0  0  0  0  0  0  0  0  0
  -47.2124    0.5054  -15.2371 Cl  0  0  0  0  0  0  0  0  0  0  0  0
  -48.9903   -1.7837  -24.4819 C   0  0  0  0  0  0  0  0  0  0  0  0
  -47.9997   -1.5406  -25.4430 C   0  0  0  0  0  0  0  0  0  0  0  0
  -47.4413   -2.6023  -26.1558 C   0  0  0  0  0  0  0  0  0  0  0  0
  -47.8638   -3.9204  -25.9189 C   0  0  0  0  0  0  0  0  0  0  0  0
  -48.8517   -4.1683  -24.9529 C   0  0  0  0  0  0  0  0  0  0  0  0
  -49.4090   -3.0946  -24.2389 C   0  0  0  0  0  0  0  0  0  0  0  0
  -49.2647   -5.4847  -24.7203 O   0  0  0  0  0  0  0  0  0  0  0  0
  -48.8638   -6.2261  -23.5761 C   0  0  0  0  0  0  0  0  0  0  0  0
  -47.3137   -4.9974  -26.6260 O   0  0  0  0  0  0  0  0  0  0  0  0
  -46.5674   -4.8442  -27.8289 C   0  0  0  0  0  0  0  0  0  0  0  0
  -47.4626   -4.9728  -29.0133 C   0  0  0  0  0  0  0  0  0  0  0  0
  -48.0376   -3.9564  -29.4808 O   0  0  0  0  0  0  0  0  0  0  0  0
  -47.6835   -6.2480  -29.6040 N   0  0  0  0  0  0  0  0  0  0  0  0
  -47.2340   -7.0442  -29.2389 H   0  0  0  0  0  0  0  0  0  0  0  0
  -48.2859   -6.3343  -30.3779 H   0  0  0  0  0  0  0  0  0  0  0  0
  1  2  1  0  0  0
  2  3  1  0  0  0
  3  4  2  0  0  0
  4  5  1  0  0  0
  4  7  1  0  0  0
  5  6  1  0  0  0
  5 14  1  0  0  0
  6  2  2  0  0  0
 14 15  2  0  0  0
 15 16  1  0  0  0
 16 17  2  0  0  0
 17 18  1  0  0  0
 18 19  2  0  0  0
 18 20  1  0  0  0
 19 14  1  0  0  0
  7  8  1  0  0  0
  8  9  2  0  0  0
  8 10  1  0  0  0
 10 11  1  0  0  0
 11 12  1  0  0  0
 12 21  1  0  0  0
 12  3  1  0  0  0
 21 22  2  0  0  0
 22 23  1  0  0  0
 23 24  2  0  0  0
 24 25  1  0  0  0
 24 29  1  0  0  0
 25 26  2  0  0  0
 25 27  1  0  0  0
 26 21  1  0  0  0
 27 28  1  0  0  0
 29 30  1  0  0  0
 30 31  1  0  0  0
 31 32  2  0  0  0
 31 33  1  0  0  0
  7 13  1  0  0  0
 33 34  1  0  0  0
 33 35  1  0  0  0
M  END
>  <minimizedAffinity>
-8.47259

>  <minimizedRMSD>
8.80772

$$$$
ZINC000408624461


 29 33  0  0  0  0  0  0  0  0999 V2000
  -52.1931    0.5360  -20.2029 C   0  0  0  0  0  0  0  0  0  0  0  0
  -51.2315    0.5235  -21.2944 N   0  0  0  0  0  0  0  0  0  0  0  0
  -49.9468   -0.0719  -21.2684 C   0  0  0  0  0  0  0  0  0  0  0  0
  -49.4324   -0.5582  -20.2263 O   0  0  0  0  0  0  0  0  0  0  0  0
  -49.2912   -0.1016  -22.6151 C   0  0  0  0  0  0  0  0  0  0  0  0
  -50.3492    0.5822  -23.5565 C   0  0  0  0  0  0  0  0  0  0  0  0
  -51.4882    0.9006  -22.6353 C   0  0  0  0  0  0  0  0  0  0  0  0
  -52.5800    1.4015  -23.0117 O   0  0  0  0  0  0  0  0  0  0  0  0
  -50.7473   -0.4022  -24.6937 C   0  0  0  0  0  0  0  0  0  0  0  0
  -51.2408   -1.6858  -24.0310 C   0  0  0  0  0  0  0  0  0  0  0  0
  -50.3477   -2.2728  -23.2149 C   0  0  0  0  0  0  0  0  0  0  0  0
  -49.0056   -1.5496  -23.1082 C   0  0  0  0  0  0  0  0  0  0  0  0
  -48.3798   -1.3561  -24.5332 C   0  0  0  0  0  0  0  0  0  0  0  0
  -49.0232   -2.1386  -25.6763 C   0  0  0  0  0  0  0  0  0  0  0  0
  -49.4126   -0.6745  -25.4738 C   0  0  0  0  0  0  0  0  0  0  0  0
  -53.0228    2.7448  -20.4371 O   0  0  0  0  0  0  0  0  0  0  0  0
  -52.4015    1.9297  -19.7063 C   0  0  0  0  0  0  0  0  0  0  0  0
  -51.9268    2.3703  -18.4251 N   0  0  0  0  0  0  0  0  0  0  0  0
  -52.0504    3.3268  -18.2274 H   0  0  0  0  0  0  0  0  0  0  0  0
  -51.2955    1.5958  -17.3959 C   0  0  0  0  0  0  0  0  0  0  0  0
  -51.3613    2.0494  -16.0755 C   0  0  0  0  0  0  0  0  0  0  0  0
  -50.7578    1.3194  -15.0482 C   0  0  0  0  0  0  0  0  0  0  0  0
  -50.0778    0.1293  -15.3273 C   0  0  0  0  0  0  0  0  0  0  0  0
  -49.3278   -0.7496  -14.0061 Cl  0  0  0  0  0  0  0  0  0  0  0  0
  -50.0023   -0.3375  -16.6491 C   0  0  0  0  0  0  0  0  0  0  0  0
  -50.6206    0.3987  -17.6720 C   0  0  0  0  0  0  0  0  0  0  0  0
  -49.2856   -1.5462  -16.9396 N   0  0  0  0  0  0  0  0  0  0  0  0
  -49.8867   -2.6178  -17.1590 O   0  0  0  0  0  0  0  0  0  0  0  0
  -49.9465   -2.7284  -17.1818 O   0  0  0  0  0  0  0  0  0  0  0  0
 16 17  2  0  0  0
 17  1  1  0  0  0
  1  2  1  0  0  0
  2  3  1  0  0  0
  3  4  2  0  0  0
  5  3  1  0  0  0
  5  6  1  0  0  0
  6  7  1  0  0  0
  7  8  2  0  0  0
  6  9  1  0  0  0
  9 10  1  0  0  0
 10 11  2  0  0  0
 12 11  1  0  0  0
 12 13  1  0  0  0
 13 14  1  0  0  0
 15 14  1  0  0  0
 17 18  1  0  0  0
 18 20  1  0  0  0
 20 21  2  0  0  0
 21 22  1  0  0  0
 22 23  2  0  0  0
 23 24  1  0  0  0
 23 25  1  0  0  0
 25 27  1  0  0  0
 27 28  2  0  0  0
 27 29  1  0  0  0
 25 26  2  0  0  0
  7  2  1  0  0  0
 15  9  1  0  0  0
 26 20  1  0  0  0
 12  5  1  0  0  0
 15 13  1  0  0  0
 18 19  1  0  0  0
M  CHG 1  27   1
M  CHG 1  29  -1
M  END
>  <minimizedAffinity>
-8.46551

>  <minimizedRMSD>
0.70345

$$$$
ZINC000408624461


 29 33  0  0  0  0  0  0  0  0999 V2000
  -52.1931    0.5362  -20.2029 C   0  0  0  0  0  0  0  0  0  0  0  0
  -51.2315    0.5236  -21.2944 N   0  0  0  0  0  0  0  0  0  0  0  0
  -49.9467   -0.0717  -21.2683 C   0  0  0  0  0  0  0  0  0  0  0  0
  -49.4323   -0.5578  -20.2262 O   0  0  0  0  0  0  0  0  0  0  0  0
  -49.2911   -0.1015  -22.6151 C   0  0  0  0  0  0  0  0  0  0  0  0
  -50.3491    0.5821  -23.5565 C   0  0  0  0  0  0  0  0  0  0  0  0
  -51.4882    0.9006  -22.6353 C   0  0  0  0  0  0  0  0  0  0  0  0
  -52.5800    1.4014  -23.0118 O   0  0  0  0  0  0  0  0  0  0  0  0
  -50.7472   -0.4024  -24.6936 C   0  0  0  0  0  0  0  0  0  0  0  0
  -51.2406   -1.6860  -24.0308 C   0  0  0  0  0  0  0  0  0  0  0  0
  -50.3475   -2.2728  -23.2146 C   0  0  0  0  0  0  0  0  0  0  0  0
  -49.0054   -1.5496  -23.1080 C   0  0  0  0  0  0  0  0  0  0  0  0
  -48.3796   -1.3561  -24.5330 C   0  0  0  0  0  0  0  0  0  0  0  0
  -49.0229   -2.1388  -25.6760 C   0  0  0  0  0  0  0  0  0  0  0  0
  -49.4124   -0.6747  -25.4737 C   0  0  0  0  0  0  0  0  0  0  0  0
  -53.0226    2.7451  -20.4371 O   0  0  0  0  0  0  0  0  0  0  0  0
  -52.4013    1.9299  -19.7063 C   0  0  0  0  0  0  0  0  0  0  0  0
  -51.9266    2.3704  -18.4250 N   0  0  0  0  0  0  0  0  0  0  0  0
  -52.0502    3.3269  -18.2274 H   0  0  0  0  0  0  0  0  0  0  0  0
  -51.2955    1.5959  -17.3958 C   0  0  0  0  0  0  0  0  0  0  0  0
  -51.3614    2.0493  -16.0754 C   0  0  0  0  0  0  0  0  0  0  0  0
  -50.7581    1.3193  -15.0481 C   0  0  0  0  0  0  0  0  0  0  0  0
  -50.0780    0.1293  -15.3273 C   0  0  0  0  0  0  0  0  0  0  0  0
  -49.3282   -0.7498  -14.0060 Cl  0  0  0  0  0  0  0  0  0  0  0  0
  -50.0023   -0.3375  -16.6491 C   0  0  0  0  0  0  0  0  0  0  0  0
  -50.6206    0.3988  -17.6720 C   0  0  0  0  0  0  0  0  0  0  0  0
  -49.2856   -1.5461  -16.9396 N   0  0  0  0  0  0  0  0  0  0  0  0
  -49.8866   -2.6178  -17.1589 O   0  0  0  0  0  0  0  0  0  0  0  0
  -49.9464   -2.7284  -17.1816 O   0  0  0  0  0  0  0  0  0  0  0  0
 16 17  2  0  0  0
 17  1  1  0  0  0
  1  2  1  0  0  0
  2  3  1  0  0  0
  3  4  2  0  0  0
  5  3  1  0  0  0
  5  6  1  0  0  0
  6  7  1  0  0  0
  7  8  2  0  0  0
  6  9  1  0  0  0
  9 10  1  0  0  0
 10 11  2  0  0  0
 12 11  1  0  0  0
 12 13  1  0  0  0
 13 14  1  0  0  0
 15 14  1  0  0  0
 17 18  1  0  0  0
 18 20  1  0  0  0
 20 21  2  0  0  0
 21 22  1  0  0  0
 22 23  2  0  0  0
 23 24  1  0  0  0
 23 25  1  0  0  0
 25 27  1  0  0  0
 27 28  2  0  0  0
 27 29  1  0  0  0
 25 26  2  0  0  0
  7  2  1  0  0  0
 15  9  1  0  0  0
 26 20  1  0  0  0
 12  5  1  0  0  0
 15 13  1  0  0  0
 18 19  1  0  0  0
M  CHG 1  27   1
M  CHG 1  29  -1
M  END
>  <minimizedAffinity>
-8.46524

>  <minimizedRMSD>
0.72198

$$$$
ZINC000113940140 CSC048854728


 31 35  0  0  0  0  0  0  0  0999 V2000
  -50.7471    2.0307  -20.7765 O   0  0  0  0  0  0  0  0  0  0  0  0
  -50.1691    0.9320  -20.5589 C   0  0  0  0  0  0  0  0  0  0  0  0
  -49.9692    0.4528  -19.2235 N   0  0  0  0  0  0  0  0  0  0  0  0
  -49.4776   -0.3956  -19.1348 H   0  0  0  0  0  0  0  0  0  0  0  0
  -49.6984    0.1171  -21.6825 C   0  0  0  0  0  0  0  0  0  0  0  0
  -50.4768   -0.2691  -22.7760 C   0  0  0  0  0  0  0  0  0  0  0  0
  -49.5922   -1.0152  -23.5325 C   0  0  0  0  0  0  0  0  0  0  0  0
  -48.3887   -1.0329  -22.8785 C   0  0  0  0  0  0  0  0  0  0  0  0
  -48.4662   -0.3485  -21.7696 O   0  0  0  0  0  0  0  0  0  0  0  0
  -47.2779   -1.7080  -23.3809 C   0  0  0  0  0  0  0  0  0  0  0  0
  -47.4214   -2.3868  -24.6042 C   0  0  0  0  0  0  0  0  0  0  0  0
  -48.6545   -2.3768  -25.2895 C   0  0  0  0  0  0  0  0  0  0  0  0
  -48.7883   -3.0540  -26.5044 C   0  0  0  0  0  0  0  0  0  0  0  0
  -50.0124   -3.0420  -27.1814 C   0  0  0  0  0  0  0  0  0  0  0  0
  -51.1082   -2.3542  -26.6481 C   0  0  0  0  0  0  0  0  0  0  0  0
  -50.9891   -1.6724  -25.4331 C   0  0  0  0  0  0  0  0  0  0  0  0
  -49.7681   -1.6787  -24.7490 C   0  0  0  0  0  0  0  0  0  0  0  0
  -50.4025    1.0663  -17.9994 C   0  0  0  0  0  0  0  0  0  0  0  0
  -51.5565    1.8642  -17.9621 C   0  0  0  0  0  0  0  0  0  0  0  0
  -51.9440    2.5038  -16.7836 C   0  0  0  0  0  0  0  0  0  0  0  0
  -51.1757    2.3600  -15.6285 C   0  0  0  0  0  0  0  0  0  0  0  0
  -50.0265    1.5678  -15.6499 C   0  0  0  0  0  0  0  0  0  0  0  0
  -49.6367    0.9035  -16.8217 C   0  0  0  0  0  0  0  0  0  0  0  0
  -48.4083    0.0772  -16.7908 C   0  0  0  0  0  0  0  0  0  0  0  0
  -47.3299    0.6012  -16.3981 O   0  0  0  0  0  0  0  0  0  0  0  0
  -48.4218   -1.3040  -17.1851 N   0  0  0  0  0  0  0  0  0  0  0  0
  -47.1698   -1.9651  -17.5515 C   0  0  0  0  0  0  0  0  0  0  0  0
  -47.4742   -3.1412  -18.4796 C   0  0  0  0  0  0  0  0  0  0  0  0
  -48.4177   -3.9925  -17.8776 O   0  0  0  0  0  0  0  0  0  0  0  0
  -49.6418   -3.3004  -17.8839 C   0  0  0  0  0  0  0  0  0  0  0  0
  -49.5878   -2.1389  -16.8909 C   0  0  0  0  0  0  0  0  0  0  0  0
  1  2  2  0  0  0
  2  3  1  0  0  0
  3 18  1  0  0  0
 18 19  2  0  0  0
 19 20  1  0  0  0
 20 21  2  0  0  0
 21 22  1  0  0  0
 22 23  2  0  0  0
 23 24  1  0  0  0
 24 25  2  0  0  0
 24 26  1  0  0  0
 26 27  1  0  0  0
 27 28  1  0  0  0
 28 29  1  0  0  0
 29 30  1  0  0  0
 30 31  1  0  0  0
  2  5  1  0  0  0
  5  6  2  0  0  0
  6  7  1  0  0  0
  7  8  2  0  0  0
  8  9  1  0  0  0
  8 10  1  0  0  0
 10 11  2  0  0  0
 11 12  1  0  0  0
 12 13  2  0  0  0
 13 14  1  0  0  0
 14 15  2  0  0  0
 15 16  1  0  0  0
 16 17  2  0  0  0
 23 18  1  0  0  0
 31 26  1  0  0  0
  9  5  1  0  0  0
 17 12  1  0  0  0
 17  7  1  0  0  0
  3  4  1  0  0  0
M  END
>  <minimizedAffinity>
-8.45016

>  <minimizedRMSD>
2.67438

$$$$
ZINC000004878453 PubChem-92237773


 32 34  0  0  0  0  0  0  0  0999 V2000
  -49.5932   -0.9218  -25.7626 C   0  0  0  0  0  0  0  0  0  0  0  0
  -49.4251   -0.6929  -24.2986 C   0  0  0  0  0  0  0  0  0  0  0  0
  -48.2982   -1.1662  -23.6051 C   0  0  0  0  0  0  0  0  0  0  0  0
  -48.1786   -0.9325  -22.2331 C   0  0  0  0  0  0  0  0  0  0  0  0
  -49.1695   -0.2293  -21.5252 C   0  0  0  0  0  0  0  0  0  0  0  0
  -50.2995    0.2477  -22.2408 C   0  0  0  0  0  0  0  0  0  0  0  0
  -50.4165    0.0112  -23.6122 C   0  0  0  0  0  0  0  0  0  0  0  0
  -51.3031    0.9574  -21.5878 C   0  0  0  0  0  0  0  0  0  0  0  0
  -51.1934    1.2050  -20.2251 C   0  0  0  0  0  0  0  0  0  0  0  0
  -52.1527    1.9095  -19.4956 C   0  0  0  0  0  0  0  0  0  0  0  0
  -53.1872    2.3615  -20.0557 O   0  0  0  0  0  0  0  0  0  0  0  0
  -51.9677    2.1101  -18.1644 N   0  0  0  0  0  0  0  0  0  0  0  0
  -50.8700    1.6454  -17.5070 C   0  0  0  0  0  0  0  0  0  0  0  0
  -50.7459    1.8582  -16.2734 O   0  0  0  0  0  0  0  0  0  0  0  0
  -49.9069    0.9523  -18.1703 N   0  0  0  0  0  0  0  0  0  0  0  0
  -50.0092    0.7030  -19.5027 C   0  0  0  0  0  0  0  0  0  0  0  0
  -49.0514   -0.0089  -20.1715 N   0  0  0  0  0  0  0  0  0  0  0  0
  -47.2152   -1.9208  -24.2990 C   0  0  0  0  0  0  0  0  0  0  0  0
  -52.6500    2.6080  -17.6587 H   0  0  0  0  0  0  0  0  0  0  0  0
  -47.8969   -0.5203  -19.4231 C   0  0  0  0  0  0  0  0  0  0  0  0
  -47.9343   -2.0464  -19.3002 C   0  0  0  0  0  0  0  0  0  0  0  0
  -46.6881   -2.5653  -19.6489 O   0  0  0  0  0  0  0  0  0  0  0  0
  -46.0169   -2.2381  -19.0296 H   0  0  0  0  0  0  0  0  0  0  0  0
  -48.3197   -2.5441  -17.9023 C   0  0  0  0  0  0  0  0  0  0  0  0
  -48.8159   -1.4943  -17.1238 O   0  0  0  0  0  0  0  0  0  0  0  0
  -49.6269   -1.1477  -17.5276 H   0  0  0  0  0  0  0  0  0  0  0  0
  -49.3174   -3.7033  -17.9446 C   0  0  0  0  0  0  0  0  0  0  0  0
  -49.7417   -4.0259  -16.6539 O   0  0  0  0  0  0  0  0  0  0  0  0
  -48.9812   -4.3176  -16.1270 H   0  0  0  0  0  0  0  0  0  0  0  0
  -48.7252   -4.9379  -18.6157 C   0  0  0  0  0  0  0  0  0  0  0  0
  -48.6146   -5.9893  -17.7032 O   0  0  0  0  0  0  0  0  0  0  0  0
  -48.0298   -5.7256  -16.9755 H   0  0  0  0  0  0  0  0  0  0  0  0
  1  2  1  0  0  0
  2  3  2  0  0  0
  3  4  1  0  0  0
  4  5  2  0  0  0
  5  6  1  0  0  0
  6  7  2  0  0  0
  6  8  1  0  0  0
  8  9  2  0  0  0
  9 10  1  0  0  0
 10 11  2  0  0  0
 10 12  1  0  0  0
 12 13  1  0  0  0
 13 14  2  0  0  0
 13 15  1  0  0  0
 15 16  2  0  0  0
 16 17  1  0  0  0
 17 20  1  0  0  0
 21 20  1  0  0  0
 21 24  1  0  0  0
 24 27  1  0  0  0
 27 30  1  0  0  0
 30 31  1  0  0  0
 27 28  1  0  0  0
 24 25  1  0  0  0
 21 22  1  0  0  0
  3 18  1  0  0  0
  7  2  1  0  0  0
 17  5  1  0  0  0
 16  9  1  0  0  0
 12 19  1  0  0  0
 31 32  1  0  0  0
 28 29  1  0  0  0
 25 26  1  0  0  0
 22 23  1  0  0  0
M  END
>  <minimizedAffinity>
-8.40968

>  <minimizedRMSD>
1.14149

$$$$
ZINC000031811572


 31 35  0  0  0  0  0  0  0  0999 V2000
  -47.5934   -1.4596  -24.3133 C   0  0  0  0  0  0  0  0  0  0  0  0
  -48.5335   -1.2330  -23.1808 C   0  0  0  0  0  0  0  0  0  0  0  0
  -49.4814   -0.2791  -23.1842 N   0  0  0  0  0  0  0  0  0  0  0  0
  -50.1289   -0.3542  -22.0327 N   0  0  0  0  0  0  0  0  0  0  0  0
  -49.6305   -1.3706  -21.2926 C   0  0  0  0  0  0  0  0  0  0  0  0
  -48.5801   -1.9542  -21.9997 C   0  0  0  0  0  0  0  0  0  0  0  0
  -47.6829   -3.1153  -21.6738 C   0  0  0  0  0  0  0  0  0  0  0  0
  -47.3682   -3.4053  -19.9057 S   0  0  0  0  0  0  0  0  0  0  0  0
  -49.0483   -4.0030  -19.6188 C   0  0  0  0  0  0  0  0  0  0  0  0
  -49.9139   -2.8782  -19.1876 C   0  0  0  0  0  0  0  0  0  0  0  0
  -50.4528   -2.9392  -18.0527 O   0  0  0  0  0  0  0  0  0  0  0  0
  -50.1875   -1.7483  -20.0218 N   0  0  0  0  0  0  0  0  0  0  0  0
  -50.8668   -1.1294  -19.6687 H   0  0  0  0  0  0  0  0  0  0  0  0
  -51.2346    0.5023  -21.7116 C   0  0  0  0  0  0  0  0  0  0  0  0
  -52.1093    0.8867  -22.6896 N   0  0  0  0  0  0  0  0  0  0  0  0
  -53.1594    1.7270  -22.4227 C   0  0  0  0  0  0  0  0  0  0  0  0
  -53.3510    2.2185  -21.1619 N   0  0  0  0  0  0  0  0  0  0  0  0
  -52.4776    1.8503  -20.1947 C   0  0  0  0  0  0  0  0  0  0  0  0
  -52.4693    2.2711  -18.9243 N   0  0  0  0  0  0  0  0  0  0  0  0
  -51.3658    1.6557  -18.4185 C   0  0  0  0  0  0  0  0  0  0  0  0
  -50.7008    0.8854  -19.3227 N   0  0  0  0  0  0  0  0  0  0  0  0
  -51.4383    1.0229  -20.4333 C   0  0  0  0  0  0  0  0  0  0  0  0
  -53.1018    2.8736  -18.4703 H   0  0  0  0  0  0  0  0  0  0  0  0
  -47.9070   -4.3699  -22.4827 C   0  0  0  0  0  0  0  0  0  0  0  0
  -49.1825   -4.7476  -22.9552 C   0  0  0  0  0  0  0  0  0  0  0  0
  -50.2788   -3.9896  -22.7073 F   0  0  0  0  0  0  0  0  0  0  0  0
  -49.3353   -5.9227  -23.6961 C   0  0  0  0  0  0  0  0  0  0  0  0
  -48.2308   -6.7297  -23.9727 C   0  0  0  0  0  0  0  0  0  0  0  0
  -46.9667   -6.3640  -23.5083 C   0  0  0  0  0  0  0  0  0  0  0  0
  -46.8023   -5.1914  -22.7665 C   0  0  0  0  0  0  0  0  0  0  0  0
  -45.5630   -4.8566  -22.3276 F   0  0  0  0  0  0  0  0  0  0  0  0
  1  2  1  0  0  0
  2  3  2  0  0  0
  3  4  1  0  0  0
  4 14  1  0  0  0
 14 15  2  0  0  0
 15 16  1  0  0  0
 16 17  2  0  0  0
 17 18  1  0  0  0
 18 19  1  0  0  0
 19 20  1  0  0  0
 20 21  2  0  0  0
 21 22  1  0  0  0
  4  5  1  0  0  0
  5  6  2  0  0  0
  6  7  1  0  0  0
  7 24  1  0  0  0
 24 25  2  0  0  0
 25 26  1  0  0  0
 25 27  1  0  0  0
 27 28  2  0  0  0
 28 29  1  0  0  0
 29 30  2  0  0  0
 30 31  1  0  0  0
  7  8  1  0  0  0
  8  9  1  0  0  0
  9 10  1  0  0  0
 10 11  2  0  0  0
 10 12  1  0  0  0
  6  2  1  0  0  0
 30 24  1  0  0  0
 22 14  1  0  0  0
 12  5  1  0  0  0
 22 18  2  0  0  0
 19 23  1  0  0  0
 12 13  1  0  0  0
M  END
>  <minimizedAffinity>
-8.40666

>  <minimizedRMSD>
0.49078

$$$$
ZINC000007171592 ZINC07171592 PubChem-8287314


 31 35  0  0  0  0  0  0  0  0999 V2000
  -50.3970   -3.6057  -20.7274 C   0  0  0  0  0  0  0  0  0  0  0  0
  -50.2494   -2.0918  -20.7134 C   0  0  0  0  0  0  0  0  0  0  0  0
  -50.5477   -1.4940  -19.3643 C   0  0  0  0  0  0  0  0  0  0  0  0
  -50.4430   -2.2058  -18.3269 O   0  0  0  0  0  0  0  0  0  0  0  0
  -50.9750   -0.1203  -19.2563 N   0  0  0  0  0  0  0  0  0  0  0  0
  -51.5138    0.5392  -20.4527 C   0  0  0  0  0  0  0  0  0  0  0  0
  -52.5657    1.5461  -20.1027 C   0  0  0  0  0  0  0  0  0  0  0  0
  -53.4417    1.8577  -20.9500 O   0  0  0  0  0  0  0  0  0  0  0  0
  -52.5324    2.2050  -18.8371 N   0  0  0  0  0  0  0  0  0  0  0  0
  -51.6066    1.7914  -17.8329 C   0  0  0  0  0  0  0  0  0  0  0  0
  -50.8280    0.6355  -18.0309 C   0  0  0  0  0  0  0  0  0  0  0  0
  -49.9172    0.2488  -17.0339 C   0  0  0  0  0  0  0  0  0  0  0  0
  -49.7964    0.9922  -15.8567 C   0  0  0  0  0  0  0  0  0  0  0  0
  -50.5836    2.1300  -15.6644 C   0  0  0  0  0  0  0  0  0  0  0  0
  -51.4885    2.5286  -16.6511 C   0  0  0  0  0  0  0  0  0  0  0  0
  -53.1514    2.9488  -18.6559 H   0  0  0  0  0  0  0  0  0  0  0  0
  -48.5674   -1.6370  -21.2318 S   0  0  0  0  0  0  0  0  0  0  0  0
  -49.0984   -1.2575  -22.9030 C   0  0  0  0  0  0  0  0  0  0  0  0
  -49.5989   -0.0581  -23.2507 N   0  0  0  0  0  0  0  0  0  0  0  0
  -49.9340   -0.1353  -24.5291 N   0  0  0  0  0  0  0  0  0  0  0  0
  -49.6478   -1.3876  -24.9410 C   0  0  0  0  0  0  0  0  0  0  0  0
  -49.1056   -2.1221  -23.9423 N   0  0  0  0  0  0  0  0  0  0  0  0
  -48.6261   -3.4811  -23.9849 C   0  0  0  0  0  0  0  0  0  0  0  0
  -47.2619   -3.7511  -24.1746 C   0  0  0  0  0  0  0  0  0  0  0  0
  -46.7960   -5.0681  -24.2152 C   0  0  0  0  0  0  0  0  0  0  0  0
  -47.6913   -6.1300  -24.0683 C   0  0  0  0  0  0  0  0  0  0  0  0
  -49.0518   -5.8744  -23.8818 C   0  0  0  0  0  0  0  0  0  0  0  0
  -49.5158   -4.5566  -23.8410 C   0  0  0  0  0  0  0  0  0  0  0  0
  -49.8133   -1.8556  -26.3582 C   0  0  0  0  0  0  0  0  0  0  0  0
  -51.0322   -1.2235  -27.0095 C   0  0  0  0  0  0  0  0  0  0  0  0
  -51.1089   -2.6365  -26.4795 C   0  0  0  0  0  0  0  0  0  0  0  0
  2  1  1  0  0  0
  2  3  1  0  0  0
  2 17  1  0  0  0
  3  4  2  0  0  0
  3  5  1  0  0  0
  5  6  1  0  0  0
  6  7  1  0  0  0
  7  8  2  0  0  0
  7  9  1  0  0  0
  9 10  1  0  0  0
 10 11  2  0  0  0
 11 12  1  0  0  0
 11  5  1  0  0  0
 12 13  2  0  0  0
 13 14  1  0  0  0
 14 15  2  0  0  0
 15 10  1  0  0  0
 17 18  1  0  0  0
 18 19  2  0  0  0
 19 20  1  0  0  0
 20 21  2  0  0  0
 21 22  1  0  0  0
 21 29  1  0  0  0
 22 23  1  0  0  0
 22 18  1  0  0  0
 23 24  2  0  0  0
 24 25  1  0  0  0
 25 26  2  0  0  0
 26 27  1  0  0  0
 27 28  2  0  0  0
 28 23  1  0  0  0
 29 30  1  0  0  0
 30 31  1  0  0  0
 31 29  1  0  0  0
  9 16  1  0  0  0
M  END
>  <minimizedAffinity>
-8.40295

>  <minimizedRMSD>
1.64133

$$$$
ZINC000002104886 ZINC02104886 PubChem-1759855


 38 43  0  0  0  0  0  0  0  0999 V2000
  -50.1236    0.1195  -22.6722 C   0  0  0  0  0  0  0  0  0  0  0  0
  -50.0252   -1.1184  -21.8306 C   0  0  0  0  0  0  0  0  0  0  0  0
  -49.4174   -2.2788  -22.3378 C   0  0  0  0  0  0  0  0  0  0  0  0
  -48.8791   -2.3204  -23.6319 C   0  0  0  0  0  0  0  0  0  0  0  0
  -48.2647   -3.4785  -24.1085 C   0  0  0  0  0  0  0  0  0  0  0  0
  -48.2028   -4.6247  -23.2958 C   0  0  0  0  0  0  0  0  0  0  0  0
  -48.7501   -4.6012  -21.9981 C   0  0  0  0  0  0  0  0  0  0  0  0
  -49.3493   -3.4261  -21.5152 C   0  0  0  0  0  0  0  0  0  0  0  0
  -49.8589   -3.3962  -20.2875 O   0  0  0  0  0  0  0  0  0  0  0  0
  -50.4371   -2.3179  -19.7704 C   0  0  0  0  0  0  0  0  0  0  0  0
  -50.9221   -2.3831  -18.6092 O   0  0  0  0  0  0  0  0  0  0  0  0
  -50.5197   -1.1238  -20.5143 C   0  0  0  0  0  0  0  0  0  0  0  0
  -48.6253   -5.8108  -21.1085 C   0  0  0  0  0  0  0  0  0  0  0  0
  -48.4894   -7.0983  -21.9195 C   0  0  0  0  0  0  0  0  0  0  0  0
  -47.3397   -6.9603  -22.9110 C   0  0  0  0  0  0  0  0  0  0  0  0
  -47.5787   -5.8238  -23.7950 N   0  0  0  0  0  0  0  0  0  0  0  0
  -47.1949   -5.9274  -25.1998 C   0  0  0  0  0  0  0  0  0  0  0  0
  -46.6685   -4.5841  -25.6945 C   0  0  0  0  0  0  0  0  0  0  0  0
  -47.7424   -3.5110  -25.5164 C   0  0  0  0  0  0  0  0  0  0  0  0
  -51.1871    0.0765  -19.9614 C   0  0  0  0  0  0  0  0  0  0  0  0
  -50.9175    0.6758  -18.7883 C   0  0  0  0  0  0  0  0  0  0  0  0
  -51.7769    1.7913  -18.3513 C   0  0  0  0  0  0  0  0  0  0  0  0
  -52.6832    2.2410  -19.1033 O   0  0  0  0  0  0  0  0  0  0  0  0
  -51.5973    2.3638  -17.0572 N   0  0  0  0  0  0  0  0  0  0  0  0
  -50.5988    1.8796  -16.1592 C   0  0  0  0  0  0  0  0  0  0  0  0
  -50.5279    2.3693  -15.0002 O   0  0  0  0  0  0  0  0  0  0  0  0
  -49.6943    0.8363  -16.5711 N   0  0  0  0  0  0  0  0  0  0  0  0
  -49.7758    0.3075  -17.9103 C   0  0  0  0  0  0  0  0  0  0  0  0
  -48.8410   -0.4171  -18.3501 O   0  0  0  0  0  0  0  0  0  0  0  0
  -52.1752    3.1099  -16.7769 H   0  0  0  0  0  0  0  0  0  0  0  0
  -48.6784    0.3603  -15.6683 C   0  0  0  0  0  0  0  0  0  0  0  0
  -47.5159    1.1197  -15.4682 C   0  0  0  0  0  0  0  0  0  0  0  0
  -46.5134    0.6685  -14.6074 C   0  0  0  0  0  0  0  0  0  0  0  0
  -46.6635   -0.5467  -13.9379 C   0  0  0  0  0  0  0  0  0  0  0  0
  -47.8180   -1.3093  -14.1260 C   0  0  0  0  0  0  0  0  0  0  0  0
  -48.8346   -0.8642  -14.9876 C   0  0  0  0  0  0  0  0  0  0  0  0
  -50.0037   -1.6121  -15.1696 O   0  0  0  0  0  0  0  0  0  0  0  0
  -50.2324   -2.8556  -14.5210 C   0  0  0  0  0  0  0  0  0  0  0  0
  1  2  1  0  0  0
  2  3  1  0  0  0
  3  4  2  0  0  0
  4  5  1  0  0  0
  5  6  2  0  0  0
  6  7  1  0  0  0
  7  8  2  0  0  0
  7 13  1  0  0  0
  8  9  1  0  0  0
  8  3  1  0  0  0
  9 10  1  0  0  0
 10 11  2  0  0  0
 10 12  1  0  0  0
 12 20  1  0  0  0
 12  2  2  0  0  0
 20 21  2  0  0  0
 21 22  1  0  0  0
 21 28  1  0  0  0
 22 23  2  0  0  0
 22 24  1  0  0  0
 24 25  1  0  0  0
 25 26  2  0  0  0
 25 27  1  0  0  0
 27 28  1  0  0  0
 27 31  1  0  0  0
 28 29  2  0  0  0
 31 32  2  0  0  0
 32 33  1  0  0  0
 33 34  2  0  0  0
 34 35  1  0  0  0
 35 36  2  0  0  0
 36 37  1  0  0  0
 36 31  1  0  0  0
 37 38  1  0  0  0
 13 14  1  0  0  0
 14 15  1  0  0  0
 15 16  1  0  0  0
 16 17  1  0  0  0
 16  6  1  0  0  0
 17 18  1  0  0  0
 18 19  1  0  0  0
 19  5  1  0  0  0
 24 30  1  0  0  0
M  END
>  <minimizedAffinity>
-8.36146

>  <minimizedRMSD>
2.52444

$$$$
ZINC000009034026 ZINC09034026 PubChem-40911175


 34 38  0  0  0  0  0  0  0  0999 V2000
  -48.8135   -1.8923  -21.0359 N   0  0  0  0  0  0  0  0  0  0  0  0
  -50.1639   -1.9477  -20.4908 C   0  0  0  0  0  0  0  0  0  0  0  0
  -50.2637   -3.2804  -19.7293 C   0  0  0  0  0  0  0  0  0  0  0  0
  -48.9327   -4.0186  -19.9013 C   0  0  0  0  0  0  0  0  0  0  0  0
  -48.1297   -3.0867  -20.7148 C   0  0  0  0  0  0  0  0  0  0  0  0
  -46.9567   -3.3335  -21.1014 O   0  0  0  0  0  0  0  0  0  0  0  0
  -48.1164   -2.5596  -26.0007 C   0  0  0  0  0  0  0  0  0  0  0  0
  -47.2381   -3.0881  -25.0236 C   0  0  0  0  0  0  0  0  0  0  0  0
  -47.2478   -2.6179  -23.7029 C   0  0  0  0  0  0  0  0  0  0  0  0
  -48.1514   -1.6145  -23.3693 C   0  0  0  0  0  0  0  0  0  0  0  0
  -49.0027   -1.0873  -24.3104 C   0  0  0  0  0  0  0  0  0  0  0  0
  -49.0249   -1.5256  -25.6383 C   0  0  0  0  0  0  0  0  0  0  0  0
  -49.7615   -0.0585  -23.6410 C   0  0  0  0  0  0  0  0  0  0  0  0
  -50.6677    0.6483  -24.1533 O   0  0  0  0  0  0  0  0  0  0  0  0
  -49.3593    0.0334  -22.3167 O   0  0  0  0  0  0  0  0  0  0  0  0
  -48.3428   -0.9381  -22.0401 C   0  0  0  0  0  0  0  0  0  0  0  0
  -47.3228   -4.1954  -27.6868 C   0  0  0  0  0  0  0  0  0  0  0  0
  -48.0854   -3.0553  -27.3095 O   0  0  0  0  0  0  0  0  0  0  0  0
  -49.9306   -0.9256  -26.5274 O   0  0  0  0  0  0  0  0  0  0  0  0
  -51.1659   -1.4979  -26.9325 C   0  0  0  0  0  0  0  0  0  0  0  0
  -50.4119   -0.8122  -19.5498 C   0  0  0  0  0  0  0  0  0  0  0  0
  -51.2400    0.0822  -19.8744 O   0  0  0  0  0  0  0  0  0  0  0  0
  -49.7064   -0.7471  -18.3012 N   0  0  0  0  0  0  0  0  0  0  0  0
  -49.0299   -1.4428  -18.1353 H   0  0  0  0  0  0  0  0  0  0  0  0
  -49.8929    0.2345  -17.2727 C   0  0  0  0  0  0  0  0  0  0  0  0
  -49.0947    0.1687  -16.1220 C   0  0  0  0  0  0  0  0  0  0  0  0
  -49.2389    1.1186  -15.1036 C   0  0  0  0  0  0  0  0  0  0  0  0
  -50.1894    2.1365  -15.2322 C   0  0  0  0  0  0  0  0  0  0  0  0
  -50.9816    2.2157  -16.3861 C   0  0  0  0  0  0  0  0  0  0  0  0
  -50.8454    1.2609  -17.3957 C   0  0  0  0  0  0  0  0  0  0  0  0
  -51.8955    3.2663  -16.5132 O   0  0  0  0  0  0  0  0  0  0  0  0
  -51.8180    4.4080  -15.6571 C   0  0  0  0  0  0  0  0  0  0  0  0
  -51.4868    3.9724  -14.2277 C   0  0  0  0  0  0  0  0  0  0  0  0
  -50.3565    3.0941  -14.2268 O   0  0  0  0  0  0  0  0  0  0  0  0
 17 18  1  0  0  0
 18  7  1  0  0  0
  7  8  2  0  0  0
  8  9  1  0  0  0
  9 10  2  0  0  0
 10 11  1  0  0  0
 11 12  2  0  0  0
 11 13  1  0  0  0
 12 19  1  0  0  0
 12  7  1  0  0  0
 19 20  1  0  0  0
 13 14  2  0  0  0
 13 15  1  0  0  0
 15 16  1  0  0  0
 16  1  1  0  0  0
 16 10  1  0  0  0
  1  2  1  0  0  0
  2  3  1  0  0  0
  2 21  1  0  0  0
  3  4  1  0  0  0
  4  5  1  0  0  0
  5  6  2  0  0  0
  5  1  1  0  0  0
 21 22  2  0  0  0
 21 23  1  0  0  0
 23 25  1  0  0  0
 25 26  2  0  0  0
 26 27  1  0  0  0
 27 28  2  0  0  0
 28 29  1  0  0  0
 29 30  2  0  0  0
 29 31  1  0  0  0
 30 25  1  0  0  0
 31 32  1  0  0  0
 32 33  1  0  0  0
 33 34  1  0  0  0
 34 28  1  0  0  0
 23 24  1  0  0  0
M  END
>  <minimizedAffinity>
-8.35512

>  <minimizedRMSD>
3.94107

$$$$
ZINC000033168752 ZINC33168752 PubChem-92884272


 35 38  0  0  0  0  0  0  0  0999 V2000
  -50.2582   -1.1111  -21.6905 N   0  0  0  0  0  0  0  0  0  0  0  0
  -50.8904   -1.4821  -22.9619 C   0  0  0  0  0  0  0  0  0  0  0  0
  -51.2043   -0.2669  -23.8243 C   0  0  0  0  0  0  0  0  0  0  0  0
  -51.9230    0.7665  -22.9764 C   0  0  0  0  0  0  0  0  0  0  0  0
  -51.0283    1.2715  -21.8406 C   0  0  0  0  0  0  0  0  0  0  0  0
  -49.9341    0.2875  -21.3928 C   0  0  0  0  0  0  0  0  0  0  0  0
  -48.1662   -2.2719  -20.9811 C   0  0  0  0  0  0  0  0  0  0  0  0
  -49.5725   -2.1460  -20.9679 C   0  0  0  0  0  0  0  0  0  0  0  0
  -50.2952   -3.0105  -20.2029 N   0  0  0  0  0  0  0  0  0  0  0  0
  -49.7029   -3.9860  -19.4672 C   0  0  0  0  0  0  0  0  0  0  0  0
  -48.3163   -4.1024  -19.4774 C   0  0  0  0  0  0  0  0  0  0  0  0
  -47.5821   -3.2401  -20.2245 N   0  0  0  0  0  0  0  0  0  0  0  0
  -47.1046   -1.1452  -21.8877 S   0  0  0  0  0  0  0  0  0  0  0  0
  -47.4721   -4.2828  -27.0774 C   0  0  0  0  0  0  0  0  0  0  0  0
  -47.3914   -3.5131  -25.8090 C   0  0  0  0  0  0  0  0  0  0  0  0
  -47.4973   -2.1196  -25.8276 C   0  0  0  0  0  0  0  0  0  0  0  0
  -47.4162   -1.3966  -24.6338 C   0  0  0  0  0  0  0  0  0  0  0  0
  -47.2336   -2.0656  -23.4186 C   0  0  0  0  0  0  0  0  0  0  0  0
  -47.1211   -3.4598  -23.4022 C   0  0  0  0  0  0  0  0  0  0  0  0
  -47.2024   -4.1833  -24.5962 C   0  0  0  0  0  0  0  0  0  0  0  0
  -51.8549    1.7265  -20.6852 C   0  0  0  0  0  0  0  0  0  0  0  0
  -53.0541    2.0609  -20.8798 O   0  0  0  0  0  0  0  0  0  0  0  0
  -51.2990    1.7589  -19.3704 N   0  0  0  0  0  0  0  0  0  0  0  0
  -50.3797    1.4341  -19.2338 H   0  0  0  0  0  0  0  0  0  0  0  0
  -52.0464    2.2557  -18.2274 C   0  0  0  0  0  0  0  0  0  0  0  0
  -51.2922    1.9750  -16.9719 C   0  0  0  0  0  0  0  0  0  0  0  0
  -50.5443    0.7978  -16.8714 C   0  0  0  0  0  0  0  0  0  0  0  0
  -49.8482    0.4918  -15.6923 C   0  0  0  0  0  0  0  0  0  0  0  0
  -49.9081    1.3765  -14.6128 C   0  0  0  0  0  0  0  0  0  0  0  0
  -50.6562    2.5522  -14.7058 C   0  0  0  0  0  0  0  0  0  0  0  0
  -51.3562    2.8603  -15.8838 C   0  0  0  0  0  0  0  0  0  0  0  0
  -52.1094    4.0357  -15.9927 O   0  0  0  0  0  0  0  0  0  0  0  0
  -51.6458    5.2935  -15.5219 C   0  0  0  0  0  0  0  0  0  0  0  0
  -49.0968   -0.6800  -15.5682 O   0  0  0  0  0  0  0  0  0  0  0  0
  -49.1139   -1.7114  -16.5471 C   0  0  0  0  0  0  0  0  0  0  0  0
 14 15  1  0  0  0
 15 16  2  0  0  0
 16 17  1  0  0  0
 17 18  2  0  0  0
 18 19  1  0  0  0
 18 13  1  0  0  0
 19 20  2  0  0  0
 20 15  1  0  0  0
 13  7  1  0  0  0
  7  8  1  0  0  0
  8  9  2  0  0  0
  8  1  1  0  0  0
  9 10  1  0  0  0
 10 11  2  0  0  0
 11 12  1  0  0  0
 12  7  2  0  0  0
  1  2  1  0  0  0
  2  3  1  0  0  0
  3  4  1  0  0  0
  4  5  1  0  0  0
  5  6  1  0  0  0
  5 21  1  0  0  0
  6  1  1  0  0  0
 21 22  2  0  0  0
 21 23  1  0  0  0
 23 25  1  0  0  0
 25 26  1  0  0  0
 26 27  2  0  0  0
 27 28  1  0  0  0
 28 29  2  0  0  0
 28 34  1  0  0  0
 29 30  1  0  0  0
 30 31  2  0  0  0
 31 32  1  0  0  0
 31 26  1  0  0  0
 32 33  1  0  0  0
 34 35  1  0  0  0
 23 24  1  0  0  0
M  END
>  <minimizedAffinity>
-8.35144

>  <minimizedRMSD>
3.72734

$$$$
ZINC000015693488 ZINC15693488 PubChem-26752795


 31 33  0  0  0  0  0  0  0  0999 V2000
  -49.6534   -0.5336  -19.1576 C   0  0  0  0  0  0  0  0  0  0  0  0
  -48.5662   -0.4329  -18.5255 O   0  0  0  0  0  0  0  0  0  0  0  0
  -50.7713    0.3215  -18.8365 N   0  0  0  0  0  0  0  0  0  0  0  0
  -51.9254    0.3309  -19.7441 C   0  0  0  0  0  0  0  0  0  0  0  0
  -52.5434    1.6922  -19.8286 C   0  0  0  0  0  0  0  0  0  0  0  0
  -53.1807    2.0303  -20.8590 O   0  0  0  0  0  0  0  0  0  0  0  0
  -52.4701    2.5783  -18.7120 N   0  0  0  0  0  0  0  0  0  0  0  0
  -51.6651    2.2450  -17.5813 C   0  0  0  0  0  0  0  0  0  0  0  0
  -50.8153    1.1244  -17.6324 C   0  0  0  0  0  0  0  0  0  0  0  0
  -50.0312    0.8148  -16.5101 C   0  0  0  0  0  0  0  0  0  0  0  0
  -50.0875    1.6105  -15.3634 C   0  0  0  0  0  0  0  0  0  0  0  0
  -50.9380    2.7230  -15.3136 C   0  0  0  0  0  0  0  0  0  0  0  0
  -51.7127    3.0441  -16.4360 C   0  0  0  0  0  0  0  0  0  0  0  0
  -52.9766    3.4225  -18.7218 H   0  0  0  0  0  0  0  0  0  0  0  0
  -50.9544    3.6103  -14.1030 C   0  0  0  0  0  0  0  0  0  0  0  0
  -49.7488    4.2803  -14.0115 F   0  0  0  0  0  0  0  0  0  0  0  0
  -51.1423    2.8588  -12.9557 F   0  0  0  0  0  0  0  0  0  0  0  0
  -51.9799    4.5355  -14.1965 F   0  0  0  0  0  0  0  0  0  0  0  0
  -49.7506   -1.5312  -20.2755 C   0  0  0  0  0  0  0  0  0  0  0  0
  -50.0345   -2.9117  -19.7160 C   0  0  0  0  0  0  0  0  0  0  0  0
  -48.5396   -1.5615  -21.0229 O   0  0  0  0  0  0  0  0  0  0  0  0
  -48.5041   -1.3892  -22.4117 C   0  0  0  0  0  0  0  0  0  0  0  0
  -48.9201   -0.3119  -22.9187 O   0  0  0  0  0  0  0  0  0  0  0  0
  -47.2534   -3.4869  -26.8890 C   0  0  0  0  0  0  0  0  0  0  0  0
  -47.3723   -3.5112  -25.4013 C   0  0  0  0  0  0  0  0  0  0  0  0
  -46.9570   -4.6607  -24.7273 C   0  0  0  0  0  0  0  0  0  0  0  0
  -47.0463   -4.7336  -23.3397 C   0  0  0  0  0  0  0  0  0  0  0  0
  -47.5531   -3.6547  -22.6178 C   0  0  0  0  0  0  0  0  0  0  0  0
  -47.9796   -2.4855  -23.2643 C   0  0  0  0  0  0  0  0  0  0  0  0
  -47.8869   -2.4120  -24.6809 C   0  0  0  0  0  0  0  0  0  0  0  0
  -48.3207   -1.1912  -25.4334 C   0  0  0  0  0  0  0  0  0  0  0  0
 24 25  1  0  0  0
 25 26  2  0  0  0
 26 27  1  0  0  0
 27 28  2  0  0  0
 28 29  1  0  0  0
 29 30  2  0  0  0
 29 22  1  0  0  0
 30 31  1  0  0  0
 30 25  1  0  0  0
 22 23  2  0  0  0
 22 21  1  0  0  0
 19 21  1  0  0  0
 19 20  1  0  0  0
 19  1  1  0  0  0
  1  2  2  0  0  0
  1  3  1  0  0  0
  3  4  1  0  0  0
  4  5  1  0  0  0
  5  6  2  0  0  0
  5  7  1  0  0  0
  7  8  1  0  0  0
  8  9  2  0  0  0
  9 10  1  0  0  0
  9  3  1  0  0  0
 10 11  2  0  0  0
 11 12  1  0  0  0
 12 13  2  0  0  0
 12 15  1  0  0  0
 13  8  1  0  0  0
 15 16  1  0  0  0
 15 17  1  0  0  0
 15 18  1  0  0  0
  7 14  1  0  0  0
M  END
>  <minimizedAffinity>
-8.35038

>  <minimizedRMSD>
1.79334

$$$$
ZINC000100261004


 32 36  0  0  0  0  0  0  0  0999 V2000
  -50.5332    0.0679  -19.2385 C   0  0  0  0  0  0  0  0  0  0  0  0
  -50.7428    0.5618  -18.0551 N   0  0  0  0  0  0  0  0  0  0  0  0
  -51.7583    1.5285  -18.0802 N   0  0  0  0  0  0  0  0  0  0  0  0
  -52.1741    1.6326  -19.4294 C   0  0  0  0  0  0  0  0  0  0  0  0
  -53.0717    2.4171  -19.8348 O   0  0  0  0  0  0  0  0  0  0  0  0
  -51.4363    0.6816  -20.2318 C   0  0  0  0  0  0  0  0  0  0  0  0
  -51.6441    0.4346  -21.5308 C   0  0  0  0  0  0  0  0  0  0  0  0
  -52.1116    2.0340  -17.3128 H   0  0  0  0  0  0  0  0  0  0  0  0
  -46.0551   -0.7121  -21.1968 C   0  0  0  0  0  0  0  0  0  0  0  0
  -47.2105   -1.2212  -20.4582 N   0  0  0  0  0  0  0  0  0  0  0  0
  -48.2521   -0.3725  -20.1932 C   0  0  0  0  0  0  0  0  0  0  0  0
  -48.1910    0.8346  -20.5614 O   0  0  0  0  0  0  0  0  0  0  0  0
  -49.3927   -0.8331  -19.5050 C   0  0  0  0  0  0  0  0  0  0  0  0
  -49.4296   -2.1593  -19.0528 C   0  0  0  0  0  0  0  0  0  0  0  0
  -50.5396   -2.6296  -18.3537 O   0  0  0  0  0  0  0  0  0  0  0  0
  -48.3572   -3.0147  -19.3214 C   0  0  0  0  0  0  0  0  0  0  0  0
  -48.3846   -4.3487  -18.8913 C   0  0  0  0  0  0  0  0  0  0  0  0
  -47.3154   -5.2024  -19.1687 C   0  0  0  0  0  0  0  0  0  0  0  0
  -46.2109   -4.7301  -19.8788 C   0  0  0  0  0  0  0  0  0  0  0  0
  -46.1729   -3.4029  -20.3118 C   0  0  0  0  0  0  0  0  0  0  0  0
  -47.2410   -2.5273  -20.0412 C   0  0  0  0  0  0  0  0  0  0  0  0
  -51.2580   -2.0554  -18.1742 H   0  0  0  0  0  0  0  0  0  0  0  0
  -51.0625   -0.6680  -22.3113 C   0  0  0  0  0  0  0  0  0  0  0  0
  -51.1594   -2.0339  -22.0547 C   0  0  0  0  0  0  0  0  0  0  0  0
  -50.5766   -2.7461  -23.0517 N   0  0  0  0  0  0  0  0  0  0  0  0
  -50.1412   -1.8287  -23.9332 C   0  0  0  0  0  0  0  0  0  0  0  0
  -49.4839   -2.0772  -25.1365 C   0  0  0  0  0  0  0  0  0  0  0  0
  -49.1254   -0.9694  -25.9261 C   0  0  0  0  0  0  0  0  0  0  0  0
  -49.4295    0.3426  -25.5024 C   0  0  0  0  0  0  0  0  0  0  0  0
  -50.0943    0.5632  -24.2830 C   0  0  0  0  0  0  0  0  0  0  0  0
  -50.4332   -0.5562  -23.5247 C   0  0  0  0  0  0  0  0  0  0  0  0
  -50.4908   -3.7248  -23.1159 H   0  0  0  0  0  0  0  0  0  0  0  0
  9 10  1  0  0  0
 10 11  1  0  0  0
 11 12  2  0  0  0
 11 13  1  0  0  0
 13  1  1  0  0  0
  1  2  2  0  0  0
  2  3  1  0  0  0
  3  4  1  0  0  0
  4  5  2  0  0  0
  4  6  1  0  0  0
  6  7  2  0  0  0
  7 23  1  0  0  0
 23 24  2  0  0  0
 24 25  1  0  0  0
 25 26  1  0  0  0
 26 27  2  0  0  0
 27 28  1  0  0  0
 28 29  2  0  0  0
 29 30  1  0  0  0
 30 31  2  0  0  0
 13 14  2  0  0  0
 14 15  1  0  0  0
 14 16  1  0  0  0
 16 17  2  0  0  0
 17 18  1  0  0  0
 18 19  2  0  0  0
 19 20  1  0  0  0
 20 21  2  0  0  0
 21 10  1  0  0  0
  6  1  1  0  0  0
 31 23  1  0  0  0
 21 16  1  0  0  0
 31 26  1  0  0  0
  3  8  1  0  0  0
 25 32  1  0  0  0
 15 22  1  0  0  0
M  END
>  <minimizedAffinity>
-8.34960

>  <minimizedRMSD>
1.17983

$$$$
ZINC000100627416


 33 37  0  0  0  0  0  0  0  0999 V2000
  -47.0222   -2.2213  -24.1804 C   0  0  0  0  0  0  0  0  0  0  0  0
  -48.3217   -1.5449  -24.4590 C   0  0  0  0  0  0  0  0  0  0  0  0
  -48.8370   -1.5750  -25.7531 C   0  0  0  0  0  0  0  0  0  0  0  0
  -50.0495   -0.9518  -26.0341 C   0  0  0  0  0  0  0  0  0  0  0  0
  -50.7368   -0.3017  -25.0094 C   0  0  0  0  0  0  0  0  0  0  0  0
  -50.2372   -0.2687  -23.7378 N   0  0  0  0  0  0  0  0  0  0  0  0
  -49.0375   -0.8814  -23.4479 C   0  0  0  0  0  0  0  0  0  0  0  0
  -48.5453   -0.8475  -22.1812 N   0  0  0  0  0  0  0  0  0  0  0  0
  -49.2062   -0.2245  -21.1699 C   0  0  0  0  0  0  0  0  0  0  0  0
  -50.4245    0.4132  -21.4448 C   0  0  0  0  0  0  0  0  0  0  0  0
  -51.0951    1.0684  -20.4157 C   0  0  0  0  0  0  0  0  0  0  0  0
  -50.5676    1.1056  -19.1233 C   0  0  0  0  0  0  0  0  0  0  0  0
  -49.3303    0.4573  -18.8831 C   0  0  0  0  0  0  0  0  0  0  0  0
  -48.7856    0.5124  -17.7081 N   0  0  0  0  0  0  0  0  0  0  0  0
  -48.6899   -0.2123  -19.8999 N   0  0  0  0  0  0  0  0  0  0  0  0
  -50.9334    0.3780  -22.7512 C   0  0  0  0  0  0  0  0  0  0  0  0
  -52.0332    0.9457  -23.0111 O   0  0  0  0  0  0  0  0  0  0  0  0
  -49.2398    0.9903  -16.9769 H   0  0  0  0  0  0  0  0  0  0  0  0
  -51.3391    1.8295  -18.0776 C   0  0  0  0  0  0  0  0  0  0  0  0
  -52.4517    2.3474  -18.3730 O   0  0  0  0  0  0  0  0  0  0  0  0
  -50.8502    1.9367  -16.7365 N   0  0  0  0  0  0  0  0  0  0  0  0
  -49.9960    1.5025  -16.5107 H   0  0  0  0  0  0  0  0  0  0  0  0
  -51.5608    2.6596  -15.6923 C   0  0  0  0  0  0  0  0  0  0  0  0
  -51.9143    4.0601  -16.1704 C   0  0  0  0  0  0  0  0  0  0  0  0
  -51.1413    5.0267  -15.2978 C   0  0  0  0  0  0  0  0  0  0  0  0
  -50.8089    4.2587  -14.0413 C   0  0  0  0  0  0  0  0  0  0  0  0
  -50.6547    2.8232  -14.4875 C   0  0  0  0  0  0  0  0  0  0  0  0
  -47.4223   -0.9087  -19.6330 C   0  0  0  0  0  0  0  0  0  0  0  0
  -47.6382   -2.3546  -19.1742 C   0  0  0  0  0  0  0  0  0  0  0  0
  -47.3106   -3.3511  -20.2664 C   0  0  0  0  0  0  0  0  0  0  0  0
  -48.4725   -4.2950  -20.2586 C   0  0  0  0  0  0  0  0  0  0  0  0
  -49.2416   -3.9013  -19.0227 C   0  0  0  0  0  0  0  0  0  0  0  0
  -48.9574   -2.5587  -18.7370 O   0  0  0  0  0  0  0  0  0  0  0  0
  1  2  1  0  0  0
  2  3  2  0  0  0
  3  4  1  0  0  0
  4  5  2  0  0  0
  5  6  1  0  0  0
  6  7  1  0  0  0
  7  8  2  0  0  0
  8  9  1  0  0  0
  9 10  2  0  0  0
 10 11  1  0  0  0
 11 12  2  0  0  0
 12 19  1  0  0  0
 19 20  2  0  0  0
 19 21  1  0  0  0
 21 23  1  0  0  0
 23 24  1  0  0  0
 24 25  1  0  0  0
 25 26  1  0  0  0
 26 27  1  0  0  0
 12 13  1  0  0  0
 13 14  2  0  0  0
 13 15  1  0  0  0
 15 28  1  0  0  0
 29 28  1  0  0  0
 29 30  1  0  0  0
 30 31  1  0  0  0
 31 32  1  0  0  0
 32 33  1  0  0  0
 10 16  1  0  0  0
 16 17  2  0  0  0
  7  2  1  0  0  0
 15  9  1  0  0  0
 33 29  1  0  0  0
 16  6  1  0  0  0
 27 23  1  0  0  0
 21 22  1  0  0  0
 14 18  1  0  0  0
M  END
>  <minimizedAffinity>
-8.34510

>  <minimizedRMSD>
1.78397

$$$$
ZINC000008812094 PubChem-92346081


 36 39  0  0  0  0  0  0  0  0999 V2000
  -50.0978    1.3143  -15.6348 C   0  0  0  0  0  0  0  0  0  0  0  0
  -50.2162    0.4853  -16.7540 C   0  0  0  0  0  0  0  0  0  0  0  0
  -51.0315    0.8528  -17.8349 C   0  0  0  0  0  0  0  0  0  0  0  0
  -51.7215    2.0884  -17.7828 C   0  0  0  0  0  0  0  0  0  0  0  0
  -51.5968    2.9156  -16.6631 C   0  0  0  0  0  0  0  0  0  0  0  0
  -50.7880    2.5291  -15.5917 C   0  0  0  0  0  0  0  0  0  0  0  0
  -52.5035    2.4775  -18.8230 N   0  0  0  0  0  0  0  0  0  0  0  0
  -52.6490    1.7065  -19.9312 C   0  0  0  0  0  0  0  0  0  0  0  0
  -53.3815    2.0973  -20.8762 O   0  0  0  0  0  0  0  0  0  0  0  0
  -51.9900    0.4808  -20.0239 C   0  0  0  0  0  0  0  0  0  0  0  0
  -51.1672    0.0370  -18.9816 C   0  0  0  0  0  0  0  0  0  0  0  0
  -52.9763    3.3396  -18.7722 H   0  0  0  0  0  0  0  0  0  0  0  0
  -50.5080   -1.2911  -19.0917 C   0  0  0  0  0  0  0  0  0  0  0  0
  -50.4254   -2.0246  -18.0710 O   0  0  0  0  0  0  0  0  0  0  0  0
  -49.9486   -1.7740  -20.3209 N   0  0  0  0  0  0  0  0  0  0  0  0
  -49.5750   -2.6849  -20.3244 H   0  0  0  0  0  0  0  0  0  0  0  0
  -49.8920   -1.0186  -21.5626 C   0  0  0  0  0  0  0  0  0  0  0  0
  -50.8550   -1.6182  -22.5717 C   0  0  0  0  0  0  0  0  0  0  0  0
  -50.4616   -1.2098  -23.9819 C   0  0  0  0  0  0  0  0  0  0  0  0
  -49.3629   -2.0341  -24.4602 N   0  0  0  0  0  0  0  0  0  0  0  0
  -49.9479   -3.2692  -24.9669 C   0  0  0  0  0  0  0  0  0  0  0  0
  -48.9988   -4.4557  -24.7785 C   0  0  0  0  0  0  0  0  0  0  0  0
  -47.5188   -4.1365  -25.0146 C   0  0  0  0  0  0  0  0  0  0  0  0
  -47.2864   -3.2668  -26.2443 C   0  0  0  0  0  0  0  0  0  0  0  0
  -47.3617   -1.7913  -25.8653 C   0  0  0  0  0  0  0  0  0  0  0  0
  -48.7980   -1.3418  -25.6116 C   0  0  0  0  0  0  0  0  0  0  0  0
  -49.0762    0.8358  -14.2913 S   0  0  0  0  0  0  0  0  0  0  0  0
  -47.6400    1.0847  -14.6593 O   0  0  0  0  0  0  0  0  0  0  0  0
  -49.4343    1.6543  -13.0809 O   0  0  0  0  0  0  0  0  0  0  0  0
  -48.0371   -0.7316  -11.7944 C   0  0  0  0  0  0  0  0  0  0  0  0
  -48.2057   -1.4126  -13.1542 C   0  0  0  0  0  0  0  0  0  0  0  0
  -48.4056   -2.9194  -12.9726 C   0  0  0  0  0  0  0  0  0  0  0  0
  -49.7731   -3.2155  -12.3526 C   0  0  0  0  0  0  0  0  0  0  0  0
  -50.8855   -2.5438  -13.1531 C   0  0  0  0  0  0  0  0  0  0  0  0
  -50.5978   -1.0513  -13.2830 C   0  0  0  0  0  0  0  0  0  0  0  0
  -49.3121   -0.8582  -13.9581 N   0  0  0  0  0  0  0  0  0  0  0  0
 31 30  1  0  0  0
 31 32  1  0  0  0
 32 33  1  0  0  0
 33 34  1  0  0  0
 34 35  1  0  0  0
 35 36  1  0  0  0
 36 27  1  0  0  0
 27 28  2  0  0  0
 27 29  2  0  0  0
 27  1  1  0  0  0
  1  2  2  0  0  0
  2  3  1  0  0  0
  3  4  2  0  0  0
  4  5  1  0  0  0
  5  6  2  0  0  0
  4  7  1  0  0  0
  7  8  1  0  0  0
  8  9  2  0  0  0
  8 10  1  0  0  0
 10 11  2  0  0  0
 11 13  1  0  0  0
 13 14  2  0  0  0
 13 15  1  0  0  0
 15 17  1  0  0  0
 17 18  1  0  0  0
 18 19  1  0  0  0
 19 20  1  0  0  0
 20 21  1  0  0  0
 21 22  1  0  0  0
 22 23  1  0  0  0
 23 24  1  0  0  0
 24 25  1  0  0  0
 25 26  1  0  0  0
 36 31  1  0  0  0
  6  1  1  0  0  0
 11  3  1  0  0  0
 26 20  1  0  0  0
  7 12  1  0  0  0
 15 16  1  0  0  0
M  END
>  <minimizedAffinity>
-8.33458

>  <minimizedRMSD>
1.58830

$$$$
ZINC000021907259


 29 32  0  0  0  0  0  0  0  0999 V2000
  -50.6698   -2.2457  -18.5560 O   0  0  0  0  0  0  0  0  0  0  0  0
  -50.2438   -1.1796  -19.0766 C   0  0  0  0  0  0  0  0  0  0  0  0
  -49.0023   -1.1821  -19.7961 N   0  0  0  0  0  0  0  0  0  0  0  0
  -48.6934   -0.3217  -20.1617 H   0  0  0  0  0  0  0  0  0  0  0  0
  -51.0149    0.0862  -18.9574 C   0  0  0  0  0  0  0  0  0  0  0  0
  -51.8185    0.4657  -20.0410 C   0  0  0  0  0  0  0  0  0  0  0  0
  -52.5681    1.6395  -19.9921 C   0  0  0  0  0  0  0  0  0  0  0  0
  -53.2846    1.9673  -20.9727 O   0  0  0  0  0  0  0  0  0  0  0  0
  -52.5270    2.4291  -18.8892 N   0  0  0  0  0  0  0  0  0  0  0  0
  -51.7646    2.1096  -17.8120 C   0  0  0  0  0  0  0  0  0  0  0  0
  -51.7539    2.9581  -16.7009 C   0  0  0  0  0  0  0  0  0  0  0  0
  -50.9717    2.6471  -15.5869 C   0  0  0  0  0  0  0  0  0  0  0  0
  -50.1961    1.4864  -15.5796 C   0  0  0  0  0  0  0  0  0  0  0  0
  -50.2018    0.6329  -16.6857 C   0  0  0  0  0  0  0  0  0  0  0  0
  -50.9835    0.9260  -17.8149 C   0  0  0  0  0  0  0  0  0  0  0  0
  -53.0635    3.2543  -18.8696 H   0  0  0  0  0  0  0  0  0  0  0  0
  -48.1723   -2.3273  -20.0294 C   0  0  0  0  0  0  0  0  0  0  0  0
  -47.0671   -2.7075  -19.2916 C   0  0  0  0  0  0  0  0  0  0  0  0
  -46.6439   -3.8725  -19.9229 C   0  0  0  0  0  0  0  0  0  0  0  0
  -47.4583   -4.1491  -20.9637 N   0  0  0  0  0  0  0  0  0  0  0  0
  -48.3835   -3.2094  -21.0160 N   0  0  0  0  0  0  0  0  0  0  0  0
  -49.4250   -3.1476  -22.0325 C   0  0  0  0  0  0  0  0  0  0  0  0
  -48.9049   -2.4928  -23.2732 C   0  0  0  0  0  0  0  0  0  0  0  0
  -47.6828   -2.9207  -23.8073 C   0  0  0  0  0  0  0  0  0  0  0  0
  -47.1658   -2.3195  -24.9575 C   0  0  0  0  0  0  0  0  0  0  0  0
  -47.8690   -1.2866  -25.5815 C   0  0  0  0  0  0  0  0  0  0  0  0
  -49.0902   -0.8563  -25.0565 C   0  0  0  0  0  0  0  0  0  0  0  0
  -49.6134   -1.4532  -23.9048 C   0  0  0  0  0  0  0  0  0  0  0  0
  -51.1621   -0.8896  -23.2985 Cl  0  0  0  0  0  0  0  0  0  0  0  0
  1  2  2  0  0  0
  2  3  1  0  0  0
  3 17  1  0  0  0
 17 18  2  0  0  0
 18 19  1  0  0  0
 19 20  2  0  0  0
 20 21  1  0  0  0
 21 22  1  0  0  0
 22 23  1  0  0  0
 23 24  2  0  0  0
 24 25  1  0  0  0
 25 26  2  0  0  0
 26 27  1  0  0  0
 27 28  2  0  0  0
 28 29  1  0  0  0
  2  5  1  0  0  0
  5  6  2  0  0  0
  6  7  1  0  0  0
  7  8  2  0  0  0
  7  9  1  0  0  0
  9 10  1  0  0  0
 10 11  2  0  0  0
 11 12  1  0  0  0
 12 13  2  0  0  0
 13 14  1  0  0  0
 14 15  2  0  0  0
 21 17  1  0  0  0
 28 23  1  0  0  0
 15  5  1  0  0  0
 15 10  1  0  0  0
  3  4  1  0  0  0
  9 16  1  0  0  0
M  END
>  <minimizedAffinity>
-8.33110

>  <minimizedRMSD>
1.45041

$$$$
ZINC000005372517 ZINC05372517 PubChem-92261927


 32 34  0  0  0  0  0  0  0  0999 V2000
  -49.0828   -0.7696  -25.5526 C   0  0  0  0  0  0  0  0  0  0  0  0
  -49.1595   -0.6664  -24.0667 C   0  0  0  0  0  0  0  0  0  0  0  0
  -50.1078    0.1889  -23.5022 C   0  0  0  0  0  0  0  0  0  0  0  0
  -50.2143    0.3156  -22.1153 C   0  0  0  0  0  0  0  0  0  0  0  0
  -51.1684    1.1784  -21.5862 C   0  0  0  0  0  0  0  0  0  0  0  0
  -51.2859    1.3188  -20.2086 C   0  0  0  0  0  0  0  0  0  0  0  0
  -52.2235    2.1737  -19.6170 C   0  0  0  0  0  0  0  0  0  0  0  0
  -53.0113    2.8558  -20.3258 O   0  0  0  0  0  0  0  0  0  0  0  0
  -52.2869    2.2721  -18.2620 N   0  0  0  0  0  0  0  0  0  0  0  0
  -51.4684    1.5679  -17.4331 C   0  0  0  0  0  0  0  0  0  0  0  0
  -51.5762    1.7041  -16.1872 O   0  0  0  0  0  0  0  0  0  0  0  0
  -50.5094    0.6949  -17.9504 C   0  0  0  0  0  0  0  0  0  0  0  0
  -50.3828    0.5352  -19.3354 C   0  0  0  0  0  0  0  0  0  0  0  0
  -49.4583   -0.3105  -19.8924 N   0  0  0  0  0  0  0  0  0  0  0  0
  -49.3587   -0.4265  -21.2604 C   0  0  0  0  0  0  0  0  0  0  0  0
  -48.4074   -1.2816  -21.8459 C   0  0  0  0  0  0  0  0  0  0  0  0
  -48.3033   -1.4059  -23.2334 C   0  0  0  0  0  0  0  0  0  0  0  0
  -47.2759   -2.3306  -23.7934 C   0  0  0  0  0  0  0  0  0  0  0  0
  -52.9527    2.8782  -17.8639 H   0  0  0  0  0  0  0  0  0  0  0  0
  -48.5775   -1.0979  -19.0205 C   0  0  0  0  0  0  0  0  0  0  0  0
  -49.0291   -2.5515  -18.9707 C   0  0  0  0  0  0  0  0  0  0  0  0
  -50.2572   -2.6506  -18.3115 O   0  0  0  0  0  0  0  0  0  0  0  0
  -50.1637   -2.3237  -17.4030 H   0  0  0  0  0  0  0  0  0  0  0  0
  -47.9659   -3.4027  -18.2743 C   0  0  0  0  0  0  0  0  0  0  0  0
  -48.3654   -3.7627  -16.9841 O   0  0  0  0  0  0  0  0  0  0  0  0
  -49.1528   -4.3269  -17.0351 H   0  0  0  0  0  0  0  0  0  0  0  0
  -47.5412   -4.6328  -19.0847 C   0  0  0  0  0  0  0  0  0  0  0  0
  -47.2861   -4.2657  -20.4063 O   0  0  0  0  0  0  0  0  0  0  0  0
  -48.1001   -3.9268  -20.8106 H   0  0  0  0  0  0  0  0  0  0  0  0
  -48.5658   -5.7602  -19.0566 C   0  0  0  0  0  0  0  0  0  0  0  0
  -48.5661   -6.3792  -17.8065 O   0  0  0  0  0  0  0  0  0  0  0  0
  -47.6874   -6.7498  -17.6291 H   0  0  0  0  0  0  0  0  0  0  0  0
  1  2  1  0  0  0
  2  3  2  0  0  0
  3  4  1  0  0  0
  4  5  1  0  0  0
  5  6  2  0  0  0
  6  7  1  0  0  0
  6 13  1  0  0  0
  7  8  2  0  0  0
  7  9  1  0  0  0
  9 10  1  0  0  0
 10 11  2  0  0  0
 10 12  1  0  0  0
 12 13  2  0  0  0
 13 14  1  0  0  0
 14 15  1  0  0  0
 14 20  1  0  0  0
 15 16  1  0  0  0
 15  4  2  0  0  0
 16 17  2  0  0  0
 17 18  1  0  0  0
 17  2  1  0  0  0
 21 20  1  0  0  0
 21 24  1  0  0  0
 21 22  1  0  0  0
 24 27  1  0  0  0
 24 25  1  0  0  0
 27 30  1  0  0  0
 27 28  1  0  0  0
 30 31  1  0  0  0
  9 19  1  0  0  0
 31 32  1  0  0  0
 28 29  1  0  0  0
 25 26  1  0  0  0
 22 23  1  0  0  0
M  END
>  <minimizedAffinity>
-8.33104

>  <minimizedRMSD>
0.89781

$$$$
ZINC000018195878 ZINC18195878


 26 29  0  0  0  0  0  0  0  0999 V2000
  -47.2209   -1.9499  -24.6392 C   0  0  0  0  0  0  0  0  0  0  0  0
  -47.9158   -1.6424  -23.3300 C   0  0  0  0  0  0  0  0  0  0  0  0
  -49.1221   -0.7453  -23.6171 C   0  0  0  0  0  0  0  0  0  0  0  0
  -49.7485   -0.1579  -22.3784 C   0  0  0  0  0  0  0  0  0  0  0  0
  -49.0326    0.0090  -21.2259 C   0  0  0  0  0  0  0  0  0  0  0  0
  -49.6712    0.5540  -19.9419 C   0  0  0  0  0  0  0  0  0  0  0  0
  -51.0326    1.1225  -20.2003 C   0  0  0  0  0  0  0  0  0  0  0  0
  -51.6968    0.9546  -21.3675 C   0  0  0  0  0  0  0  0  0  0  0  0
  -52.9225    1.5063  -21.3187 N   0  0  0  0  0  0  0  0  0  0  0  0
  -53.0641    2.0310  -20.1050 N   0  0  0  0  0  0  0  0  0  0  0  0
  -51.9269    1.8032  -19.4120 C   0  0  0  0  0  0  0  0  0  0  0  0
  -51.7217    2.1987  -18.0968 O   0  0  0  0  0  0  0  0  0  0  0  0
  -51.1111    0.2942  -22.4808 N   0  0  0  0  0  0  0  0  0  0  0  0
  -47.6004   -0.3736  -21.1923 C   0  0  0  0  0  0  0  0  0  0  0  0
  -46.9166   -0.1906  -20.1506 O   0  0  0  0  0  0  0  0  0  0  0  0
  -46.9266   -0.9318  -22.4093 C   0  0  0  0  0  0  0  0  0  0  0  0
  -48.3698   -2.9549  -22.7098 C   0  0  0  0  0  0  0  0  0  0  0  0
  -53.5883    1.5193  -22.0438 H   0  0  0  0  0  0  0  0  0  0  0  0
  -52.3939    2.6616  -17.6364 H   0  0  0  0  0  0  0  0  0  0  0  0
  -51.6273    0.1487  -23.3064 H   0  0  0  0  0  0  0  0  0  0  0  0
  -49.7399   -0.5019  -18.8763 C   0  0  0  0  0  0  0  0  0  0  0  0
  -49.3919   -0.1711  -17.5643 C   0  0  0  0  0  0  0  0  0  0  0  0
  -49.4628   -1.1483  -16.5691 C   0  0  0  0  0  0  0  0  0  0  0  0
  -49.8700   -2.4089  -16.8778 N   0  0  0  0  0  0  0  0  0  0  0  0
  -50.2176   -2.7541  -18.1467 C   0  0  0  0  0  0  0  0  0  0  0  0
  -50.1606   -1.8065  -19.1703 C   0  0  0  0  0  0  0  0  0  0  0  0
  1  2  1  0  0  0
  2  3  1  0  0  0
  2 17  1  0  0  0
  3  4  1  0  0  0
  4  5  2  0  0  0
  5  6  1  0  0  0
  5 14  1  0  0  0
  6  7  1  0  0  0
  6 21  1  0  0  0
  7  8  2  0  0  0
  8  9  1  0  0  0
  8 13  1  0  0  0
  9 10  1  0  0  0
 10 11  2  0  0  0
 11 12  1  0  0  0
 11  7  1  0  0  0
 13  4  1  0  0  0
 21 22  2  0  0  0
 22 23  1  0  0  0
 23 24  2  0  0  0
 24 25  1  0  0  0
 25 26  2  0  0  0
 26 21  1  0  0  0
 14 15  2  0  0  0
 14 16  1  0  0  0
 16  2  1  0  0  0
  9 18  1  0  0  0
 12 19  1  0  0  0
 13 20  1  0  0  0
M  END
>  <minimizedAffinity>
-8.32466

>  <minimizedRMSD>
0.85741

$$$$
ZINC000018195878 ZINC18195878


 26 29  0  0  0  0  0  0  0  0999 V2000
  -48.3700   -2.9552  -22.7099 C   0  0  0  0  0  0  0  0  0  0  0  0
  -47.9159   -1.6428  -23.3301 C   0  0  0  0  0  0  0  0  0  0  0  0
  -49.1221   -0.7456  -23.6173 C   0  0  0  0  0  0  0  0  0  0  0  0
  -49.7485   -0.1582  -22.3786 C   0  0  0  0  0  0  0  0  0  0  0  0
  -49.0326    0.0088  -21.2262 C   0  0  0  0  0  0  0  0  0  0  0  0
  -49.6713    0.5538  -19.9422 C   0  0  0  0  0  0  0  0  0  0  0  0
  -51.0325    1.1223  -20.2006 C   0  0  0  0  0  0  0  0  0  0  0  0
  -51.6969    0.9545  -21.3679 C   0  0  0  0  0  0  0  0  0  0  0  0
  -52.9225    1.5062  -21.3190 N   0  0  0  0  0  0  0  0  0  0  0  0
  -53.0641    2.0309  -20.1053 N   0  0  0  0  0  0  0  0  0  0  0  0
  -51.9269    1.8031  -19.4123 C   0  0  0  0  0  0  0  0  0  0  0  0
  -51.7217    2.1987  -18.0971 O   0  0  0  0  0  0  0  0  0  0  0  0
  -51.1111    0.2940  -22.4811 N   0  0  0  0  0  0  0  0  0  0  0  0
  -47.6005   -0.3738  -21.1925 C   0  0  0  0  0  0  0  0  0  0  0  0
  -46.9166   -0.1908  -20.1509 O   0  0  0  0  0  0  0  0  0  0  0  0
  -46.9267   -0.9321  -22.4095 C   0  0  0  0  0  0  0  0  0  0  0  0
  -47.2210   -1.9503  -24.6395 C   0  0  0  0  0  0  0  0  0  0  0  0
  -53.5883    1.5191  -22.0441 H   0  0  0  0  0  0  0  0  0  0  0  0
  -52.3939    2.6616  -17.6369 H   0  0  0  0  0  0  0  0  0  0  0  0
  -51.6273    0.1484  -23.3067 H   0  0  0  0  0  0  0  0  0  0  0  0
  -49.7400   -0.5019  -18.8765 C   0  0  0  0  0  0  0  0  0  0  0  0
  -50.1607   -1.8065  -19.1704 C   0  0  0  0  0  0  0  0  0  0  0  0
  -50.2177   -2.7542  -18.1468 C   0  0  0  0  0  0  0  0  0  0  0  0
  -49.8701   -2.4089  -16.8779 N   0  0  0  0  0  0  0  0  0  0  0  0
  -49.4628   -1.1483  -16.5693 C   0  0  0  0  0  0  0  0  0  0  0  0
  -49.3919   -0.1712  -17.5645 C   0  0  0  0  0  0  0  0  0  0  0  0
  1  2  1  0  0  0
  2  3  1  0  0  0
  2 17  1  0  0  0
  3  4  1  0  0  0
  4  5  2  0  0  0
  5  6  1  0  0  0
  5 14  1  0  0  0
  6  7  1  0  0  0
  6 21  1  0  0  0
  7  8  2  0  0  0
  8  9  1  0  0  0
  8 13  1  0  0  0
  9 10  1  0  0  0
 10 11  2  0  0  0
 11 12  1  0  0  0
 11  7  1  0  0  0
 13  4  1  0  0  0
 21 22  2  0  0  0
 22 23  1  0  0  0
 23 24  2  0  0  0
 24 25  1  0  0  0
 25 26  2  0  0  0
 26 21  1  0  0  0
 14 15  2  0  0  0
 14 16  1  0  0  0
 16  2  1  0  0  0
  9 18  1  0  0  0
 12 19  1  0  0  0
 13 20  1  0  0  0
M  END
>  <minimizedAffinity>
-8.32464

>  <minimizedRMSD>
0.85786

$$$$
ZINC000018195880 ZINC18195880


 26 29  0  0  0  0  0  0  0  0999 V2000
  -47.2209   -1.9498  -24.6392 C   0  0  0  0  0  0  0  0  0  0  0  0
  -47.9158   -1.6424  -23.3300 C   0  0  0  0  0  0  0  0  0  0  0  0
  -49.1220   -0.7452  -23.6171 C   0  0  0  0  0  0  0  0  0  0  0  0
  -49.7485   -0.1579  -22.3783 C   0  0  0  0  0  0  0  0  0  0  0  0
  -49.0326    0.0090  -21.2259 C   0  0  0  0  0  0  0  0  0  0  0  0
  -49.6713    0.5540  -19.9420 C   0  0  0  0  0  0  0  0  0  0  0  0
  -51.0326    1.1226  -20.2003 C   0  0  0  0  0  0  0  0  0  0  0  0
  -51.6968    0.9548  -21.3676 C   0  0  0  0  0  0  0  0  0  0  0  0
  -52.9224    1.5064  -21.3188 N   0  0  0  0  0  0  0  0  0  0  0  0
  -53.0641    2.0311  -20.1050 N   0  0  0  0  0  0  0  0  0  0  0  0
  -51.9269    1.8032  -19.4120 C   0  0  0  0  0  0  0  0  0  0  0  0
  -51.7218    2.1987  -18.0967 O   0  0  0  0  0  0  0  0  0  0  0  0
  -51.1110    0.2944  -22.4809 N   0  0  0  0  0  0  0  0  0  0  0  0
  -47.6004   -0.3736  -21.1923 C   0  0  0  0  0  0  0  0  0  0  0  0
  -46.9166   -0.1906  -20.1505 O   0  0  0  0  0  0  0  0  0  0  0  0
  -46.9266   -0.9317  -22.4092 C   0  0  0  0  0  0  0  0  0  0  0  0
  -48.3699   -2.9548  -22.7097 C   0  0  0  0  0  0  0  0  0  0  0  0
  -53.5883    1.5194  -22.0438 H   0  0  0  0  0  0  0  0  0  0  0  0
  -52.3940    2.6615  -17.6364 H   0  0  0  0  0  0  0  0  0  0  0  0
  -51.6272    0.1490  -23.3066 H   0  0  0  0  0  0  0  0  0  0  0  0
  -49.7400   -0.5018  -18.8763 C   0  0  0  0  0  0  0  0  0  0  0  0
  -50.1607   -1.8064  -19.1703 C   0  0  0  0  0  0  0  0  0  0  0  0
  -50.2177   -2.7542  -18.1467 C   0  0  0  0  0  0  0  0  0  0  0  0
  -49.8702   -2.4089  -16.8778 N   0  0  0  0  0  0  0  0  0  0  0  0
  -49.4629   -1.1483  -16.5690 C   0  0  0  0  0  0  0  0  0  0  0  0
  -49.3920   -0.1711  -17.5643 C   0  0  0  0  0  0  0  0  0  0  0  0
  1  2  1  0  0  0
  2  3  1  0  0  0
  2 17  1  0  0  0
  3  4  1  0  0  0
  4  5  2  0  0  0
  5  6  1  0  0  0
  5 14  1  0  0  0
  6  7  1  0  0  0
  6 21  1  0  0  0
  7  8  2  0  0  0
  8  9  1  0  0  0
  8 13  1  0  0  0
  9 10  1  0  0  0
 10 11  2  0  0  0
 11 12  1  0  0  0
 11  7  1  0  0  0
 13  4  1  0  0  0
 21 22  2  0  0  0
 22 23  1  0  0  0
 23 24  2  0  0  0
 24 25  1  0  0  0
 25 26  2  0  0  0
 26 21  1  0  0  0
 14 15  2  0  0  0
 14 16  1  0  0  0
 16  2  1  0  0  0
  9 18  1  0  0  0
 12 19  1  0  0  0
 13 20  1  0  0  0
M  END
>  <minimizedAffinity>
-8.32452

>  <minimizedRMSD>
0.85772

$$$$
ZINC000031811413


 33 37  0  0  0  0  0  0  0  0999 V2000
  -48.5271   -3.7020  -21.5931 C   0  0  0  0  0  0  0  0  0  0  0  0
  -49.3204   -4.8782  -20.4624 S   0  0  0  0  0  0  0  0  0  0  0  0
  -48.7110   -3.9142  -19.0681 C   0  0  0  0  0  0  0  0  0  0  0  0
  -49.7750   -2.9801  -18.6295 C   0  0  0  0  0  0  0  0  0  0  0  0
  -50.1969   -3.0634  -17.4474 O   0  0  0  0  0  0  0  0  0  0  0  0
  -50.3303   -1.9837  -19.4936 N   0  0  0  0  0  0  0  0  0  0  0  0
  -50.0718   -1.6961  -20.8799 C   0  0  0  0  0  0  0  0  0  0  0  0
  -49.3656   -2.4562  -21.8202 C   0  0  0  0  0  0  0  0  0  0  0  0
  -49.5083   -1.7146  -22.9977 C   0  0  0  0  0  0  0  0  0  0  0  0
  -48.8898   -1.9828  -24.3263 C   0  0  0  0  0  0  0  0  0  0  0  0
  -50.2719   -0.6303  -22.7783 N   0  0  0  0  0  0  0  0  0  0  0  0
  -50.6036   -0.6200  -21.5000 N   0  0  0  0  0  0  0  0  0  0  0  0
  -50.9993   -1.3987  -19.0700 H   0  0  0  0  0  0  0  0  0  0  0  0
  -51.4395    0.3968  -20.9284 C   0  0  0  0  0  0  0  0  0  0  0  0
  -52.4089    0.9923  -21.6868 N   0  0  0  0  0  0  0  0  0  0  0  0
  -53.2047    1.9876  -21.1807 C   0  0  0  0  0  0  0  0  0  0  0  0
  -53.0367    2.4245  -19.8967 N   0  0  0  0  0  0  0  0  0  0  0  0
  -52.0675    1.8461  -19.1483 C   0  0  0  0  0  0  0  0  0  0  0  0
  -51.7187    2.1775  -17.8995 N   0  0  0  0  0  0  0  0  0  0  0  0
  -50.6700    1.3446  -17.6569 C   0  0  0  0  0  0  0  0  0  0  0  0
  -50.3621    0.5271  -18.7009 N   0  0  0  0  0  0  0  0  0  0  0  0
  -51.2738    0.8636  -19.6239 C   0  0  0  0  0  0  0  0  0  0  0  0
  -52.1195    2.8532  -17.3061 H   0  0  0  0  0  0  0  0  0  0  0  0
  -47.2723   -5.7280  -25.1844 C   0  0  0  0  0  0  0  0  0  0  0  0
  -46.7349   -4.4769  -24.8389 C   0  0  0  0  0  0  0  0  0  0  0  0
  -47.1472   -3.8279  -23.6726 C   0  0  0  0  0  0  0  0  0  0  0  0
  -48.1010   -4.4192  -22.8391 C   0  0  0  0  0  0  0  0  0  0  0  0
  -48.6377   -5.6703  -23.1788 C   0  0  0  0  0  0  0  0  0  0  0  0
  -48.2266   -6.3211  -24.3453 C   0  0  0  0  0  0  0  0  0  0  0  0
  -48.7702   -7.5584  -24.6668 O   0  0  0  0  0  0  0  0  0  0  0  0
  -49.4076   -7.9508  -24.1031 H   0  0  0  0  0  0  0  0  0  0  0  0
  -46.1723   -5.7489  -27.4019 C   0  0  0  0  0  0  0  0  0  0  0  0
  -46.8743   -6.3944  -26.3483 O   0  0  0  0  0  0  0  0  0  0  0  0
 32 33  1  0  0  0
 33 24  1  0  0  0
 24 25  2  0  0  0
 25 26  1  0  0  0
 26 27  2  0  0  0
  1 27  1  0  0  0
  1  2  1  0  0  0
  2  3  1  0  0  0
  3  4  1  0  0  0
  4  5  2  0  0  0
  4  6  1  0  0  0
  6  7  1  0  0  0
  7  8  2  0  0  0
  8  9  1  0  0  0
  9 10  1  0  0  0
  9 11  2  0  0  0
 11 12  1  0  0  0
 12 14  1  0  0  0
 14 15  2  0  0  0
 15 16  1  0  0  0
 16 17  2  0  0  0
 17 18  1  0  0  0
 18 19  1  0  0  0
 19 20  1  0  0  0
 20 21  2  0  0  0
 21 22  1  0  0  0
 27 28  1  0  0  0
 28 29  2  0  0  0
 29 30  1  0  0  0
 29 24  1  0  0  0
  8  1  1  0  0  0
 22 14  1  0  0  0
 12  7  1  0  0  0
 22 18  2  0  0  0
  6 13  1  0  0  0
 19 23  1  0  0  0
 30 31  1  0  0  0
M  END
>  <minimizedAffinity>
-8.31183

>  <minimizedRMSD>
1.28112

$$$$
ZINC000013148091 ZINC13148091 PubChem-25726336


 38 42  0  0  0  0  0  0  0  0999 V2000
  -48.1608   -2.6900  -19.6901 C   0  0  0  0  0  0  0  0  0  0  0  0
  -46.8430   -3.3295  -23.1459 C   0  0  0  0  0  0  0  0  0  0  0  0
  -46.7424   -2.1011  -22.7301 N   0  0  0  0  0  0  0  0  0  0  0  0
  -46.5107   -1.7723  -21.3556 C   0  0  0  0  0  0  0  0  0  0  0  0
  -46.1619   -0.6021  -21.0518 O   0  0  0  0  0  0  0  0  0  0  0  0
  -46.7328   -2.7926  -20.2683 C   0  0  0  0  0  0  0  0  0  0  0  0
  -46.4926   -4.1689  -20.8298 C   0  0  0  0  0  0  0  0  0  0  0  0
  -46.1699   -5.1155  -20.0671 O   0  0  0  0  0  0  0  0  0  0  0  0
  -46.6552   -4.4129  -22.2275 N   0  0  0  0  0  0  0  0  0  0  0  0
  -46.6380   -5.3378  -22.5644 H   0  0  0  0  0  0  0  0  0  0  0  0
  -47.5713   -4.1437  -27.2809 C   0  0  0  0  0  0  0  0  0  0  0  0
  -47.6913   -2.8404  -26.7955 C   0  0  0  0  0  0  0  0  0  0  0  0
  -47.4492   -2.5733  -25.4471 C   0  0  0  0  0  0  0  0  0  0  0  0
  -47.0886   -3.6069  -24.5713 C   0  0  0  0  0  0  0  0  0  0  0  0
  -46.9726   -4.9130  -25.0674 C   0  0  0  0  0  0  0  0  0  0  0  0
  -47.2106   -5.1792  -26.4178 C   0  0  0  0  0  0  0  0  0  0  0  0
  -48.1900   -2.3678  -18.1802 C   0  0  0  0  0  0  0  0  0  0  0  0
  -49.5836   -2.4476  -17.6339 C   0  0  0  0  0  0  0  0  0  0  0  0
  -50.1862   -3.5521  -17.6037 O   0  0  0  0  0  0  0  0  0  0  0  0
  -50.2423   -1.2711  -17.1705 N   0  0  0  0  0  0  0  0  0  0  0  0
  -49.5586   -0.0150  -17.0884 C   0  0  0  0  0  0  0  0  0  0  0  0
  -48.2940    0.0630  -17.3817 N   0  0  0  0  0  0  0  0  0  0  0  0
  -47.5270   -1.0614  -17.8271 C   0  0  0  0  0  0  0  0  0  0  0  0
  -46.2799   -0.9468  -17.9463 O   0  0  0  0  0  0  0  0  0  0  0  0
  -51.1877   -1.3232  -16.9009 H   0  0  0  0  0  0  0  0  0  0  0  0
  -50.2849    1.1818  -16.6242 C   0  0  0  0  0  0  0  0  0  0  0  0
  -51.2152    1.8101  -17.4646 C   0  0  0  0  0  0  0  0  0  0  0  0
  -51.9135    2.9395  -17.0282 C   0  0  0  0  0  0  0  0  0  0  0  0
  -51.6825    3.4525  -15.7496 C   0  0  0  0  0  0  0  0  0  0  0  0
  -50.7548    2.8355  -14.9059 C   0  0  0  0  0  0  0  0  0  0  0  0
  -50.0583    1.7043  -15.3412 C   0  0  0  0  0  0  0  0  0  0  0  0
  -49.0780   -1.8005  -20.4935 C   0  0  0  0  0  0  0  0  0  0  0  0
  -48.9885   -0.4001  -20.4175 C   0  0  0  0  0  0  0  0  0  0  0  0
  -49.8463    0.4028  -21.1727 C   0  0  0  0  0  0  0  0  0  0  0  0
  -50.7977   -0.1892  -22.0069 C   0  0  0  0  0  0  0  0  0  0  0  0
  -50.8883   -1.5815  -22.0910 C   0  0  0  0  0  0  0  0  0  0  0  0
  -50.0276   -2.3864  -21.3378 C   0  0  0  0  0  0  0  0  0  0  0  0
  -51.8848    0.8107  -22.9415 Cl  0  0  0  0  0  0  0  0  0  0  0  0
 11 12  2  0  0  0
 12 13  1  0  0  0
 13 14  2  0  0  0
 14 15  1  0  0  0
 14  2  1  0  0  0
 15 16  2  0  0  0
 16 11  1  0  0  0
  2  3  2  0  0  0
  3  4  1  0  0  0
  4  5  2  0  0  0
  6  4  1  0  0  0
  6  7  1  0  0  0
  6  1  1  0  0  0
  7  8  2  0  0  0
  7  9  1  0  0  0
  9  2  1  0  0  0
  1 32  1  0  0  0
 32 33  2  0  0  0
 33 34  1  0  0  0
 34 35  2  0  0  0
 35 36  1  0  0  0
 35 38  1  0  0  0
 36 37  2  0  0  0
 37 32  1  0  0  0
 17  1  1  0  0  0
 17 18  1  0  0  0
 18 19  2  0  0  0
 18 20  1  0  0  0
 20 21  1  0  0  0
 21 22  2  0  0  0
 21 26  1  0  0  0
 22 23  1  0  0  0
 23 24  2  0  0  0
 23 17  1  0  0  0
 26 27  2  0  0  0
 27 28  1  0  0  0
 28 29  2  0  0  0
 29 30  1  0  0  0
 30 31  2  0  0  0
 31 26  1  0  0  0
  9 10  1  0  0  0
 20 25  1  0  0  0
M  END
>  <minimizedAffinity>
-8.30929

>  <minimizedRMSD>
8.00250

$$$$
ZINC000009910163 ZINC09910163 CSC027488492 MCULE-9624540958 MolPort-005-796-296 PubChem-16372402


 35 38  0  0  0  0  0  0  0  0999 V2000
  -50.0023    1.0962  -15.8391 C   0  0  0  0  0  0  0  0  0  0  0  0
  -50.6919    2.3077  -15.7320 C   0  0  0  0  0  0  0  0  0  0  0  0
  -51.5254    2.7352  -16.7679 C   0  0  0  0  0  0  0  0  0  0  0  0
  -51.6767    1.9522  -17.9157 C   0  0  0  0  0  0  0  0  0  0  0  0
  -52.4822    2.3812  -18.9216 N   0  0  0  0  0  0  0  0  0  0  0  0
  -52.6553    1.6534  -20.0550 C   0  0  0  0  0  0  0  0  0  0  0  0
  -53.4087    2.0811  -20.9670 O   0  0  0  0  0  0  0  0  0  0  0  0
  -52.0019    0.4312  -20.2097 C   0  0  0  0  0  0  0  0  0  0  0  0
  -51.1570   -0.0522  -19.2033 C   0  0  0  0  0  0  0  0  0  0  0  0
  -50.9903    0.7192  -18.0306 C   0  0  0  0  0  0  0  0  0  0  0  0
  -50.1486    0.3103  -16.9853 C   0  0  0  0  0  0  0  0  0  0  0  0
  -52.9523    3.2410  -18.8268 H   0  0  0  0  0  0  0  0  0  0  0  0
  -50.5089   -1.3769  -19.3846 C   0  0  0  0  0  0  0  0  0  0  0  0
  -50.5196   -2.1989  -18.4272 O   0  0  0  0  0  0  0  0  0  0  0  0
  -49.8907   -1.7537  -20.6292 N   0  0  0  0  0  0  0  0  0  0  0  0
  -49.4596   -3.1309  -20.8287 C   0  0  0  0  0  0  0  0  0  0  0  0
  -49.4625   -0.7466  -21.5950 C   0  0  0  0  0  0  0  0  0  0  0  0
  -50.0121   -1.0480  -22.9530 C   0  0  0  0  0  0  0  0  0  0  0  0
  -51.2839   -0.7994  -23.3185 N   0  0  0  0  0  0  0  0  0  0  0  0
  -51.4182   -1.2280  -24.5662 N   0  0  0  0  0  0  0  0  0  0  0  0
  -50.2334   -1.7522  -24.9344 C   0  0  0  0  0  0  0  0  0  0  0  0
  -49.9510   -2.2252  -26.3302 C   0  0  0  0  0  0  0  0  0  0  0  0
  -48.8871   -3.3144  -26.3529 C   0  0  0  0  0  0  0  0  0  0  0  0
  -47.4666   -2.7409  -26.3105 C   0  0  0  0  0  0  0  0  0  0  0  0
  -47.2288   -1.7062  -25.2060 C   0  0  0  0  0  0  0  0  0  0  0  0
  -47.9316   -2.0871  -23.9112 C   0  0  0  0  0  0  0  0  0  0  0  0
  -49.3236   -1.6439  -23.9421 N   0  0  0  0  0  0  0  0  0  0  0  0
  -48.9510    0.5535  -14.5429 S   0  0  0  0  0  0  0  0  0  0  0  0
  -49.3384    1.2337  -13.2575 O   0  0  0  0  0  0  0  0  0  0  0  0
  -47.5338    0.9204  -14.8843 O   0  0  0  0  0  0  0  0  0  0  0  0
  -49.0877   -1.1707  -14.3618 N   0  0  0  0  0  0  0  0  0  0  0  0
  -47.0531   -2.4975  -14.3926 C   0  0  0  0  0  0  0  0  0  0  0  0
  -47.9656   -1.6237  -13.5550 C   0  0  0  0  0  0  0  0  0  0  0  0
  -50.2910   -1.4436  -13.5918 C   0  0  0  0  0  0  0  0  0  0  0  0
  -50.6761   -2.9006  -13.7436 C   0  0  0  0  0  0  0  0  0  0  0  0
 32 33  1  0  0  0
 33 31  1  0  0  0
 31 34  1  0  0  0
 31 28  1  0  0  0
 34 35  1  0  0  0
 28 29  2  0  0  0
 28 30  2  0  0  0
 28  1  1  0  0  0
  1  2  2  0  0  0
  2  3  1  0  0  0
  3  4  2  0  0  0
  4  5  1  0  0  0
  5  6  1  0  0  0
  6  7  2  0  0  0
  6  8  1  0  0  0
  8  9  2  0  0  0
  9 13  1  0  0  0
  9 10  1  0  0  0
 13 14  2  0  0  0
 13 15  1  0  0  0
 15 16  1  0  0  0
 15 17  1  0  0  0
 17 18  1  0  0  0
 18 19  2  0  0  0
 19 20  1  0  0  0
 20 21  2  0  0  0
 21 22  1  0  0  0
 22 23  1  0  0  0
 23 24  1  0  0  0
 24 25  1  0  0  0
 25 26  1  0  0  0
 26 27  1  0  0  0
 27 18  1  0  0  0
 27 21  1  0  0  0
 10 11  2  0  0  0
 10  4  1  0  0  0
 11  1  1  0  0  0
  5 12  1  0  0  0
M  END
>  <minimizedAffinity>
-8.29525

>  <minimizedRMSD>
1.11219

$$$$
ZINC000005372517 ZINC05372517 PubChem-92261927


 32 34  0  0  0  0  0  0  0  0999 V2000
  -48.9599   -0.7636  -25.5647 C   0  0  0  0  0  0  0  0  0  0  0  0
  -49.0996   -0.7251  -24.0804 C   0  0  0  0  0  0  0  0  0  0  0  0
  -50.0104    0.1702  -23.5156 C   0  0  0  0  0  0  0  0  0  0  0  0
  -50.1734    0.2389  -22.1300 C   0  0  0  0  0  0  0  0  0  0  0  0
  -51.0862    1.1446  -21.6002 C   0  0  0  0  0  0  0  0  0  0  0  0
  -51.2574    1.2292  -20.2235 C   0  0  0  0  0  0  0  0  0  0  0  0
  -52.1562    2.1241  -19.6310 C   0  0  0  0  0  0  0  0  0  0  0  0
  -52.8585    2.8954  -20.3383 O   0  0  0  0  0  0  0  0  0  0  0  0
  -52.2743    2.1649  -18.2768 N   0  0  0  0  0  0  0  0  0  0  0  0
  -51.5481    1.3641  -17.4494 C   0  0  0  0  0  0  0  0  0  0  0  0
  -51.7025    1.4511  -16.2040 O   0  0  0  0  0  0  0  0  0  0  0  0
  -50.6331    0.4458  -17.9679 C   0  0  0  0  0  0  0  0  0  0  0  0
  -50.4554    0.3401  -19.3524 C   0  0  0  0  0  0  0  0  0  0  0  0
  -49.5708   -0.5464  -19.9107 N   0  0  0  0  0  0  0  0  0  0  0  0
  -49.4148   -0.6041  -21.2770 C   0  0  0  0  0  0  0  0  0  0  0  0
  -48.4996   -1.4971  -21.8628 C   0  0  0  0  0  0  0  0  0  0  0  0
  -48.3384   -1.5634  -23.2485 C   0  0  0  0  0  0  0  0  0  0  0  0
  -47.3532   -2.5329  -23.8081 C   0  0  0  0  0  0  0  0  0  0  0  0
  -52.9118    2.8004  -17.8780 H   0  0  0  0  0  0  0  0  0  0  0  0
  -48.7927   -1.4403  -19.0440 C   0  0  0  0  0  0  0  0  0  0  0  0
  -49.3758   -2.8490  -19.0619 C   0  0  0  0  0  0  0  0  0  0  0  0
  -50.5041   -2.8899  -18.2397 O   0  0  0  0  0  0  0  0  0  0  0  0
  -50.2508   -2.6620  -17.3315 H   0  0  0  0  0  0  0  0  0  0  0  0
  -48.3361   -3.8704  -18.5847 C   0  0  0  0  0  0  0  0  0  0  0  0
  -48.8943   -4.7186  -17.6250 O   0  0  0  0  0  0  0  0  0  0  0  0
  -49.6187   -5.2256  -18.0238 H   0  0  0  0  0  0  0  0  0  0  0  0
  -47.7477   -4.7143  -19.7218 C   0  0  0  0  0  0  0  0  0  0  0  0
  -46.6808   -4.0507  -20.3307 O   0  0  0  0  0  0  0  0  0  0  0  0
  -46.9992   -3.2271  -20.7324 H   0  0  0  0  0  0  0  0  0  0  0  0
  -48.7951   -5.0984  -20.7592 C   0  0  0  0  0  0  0  0  0  0  0  0
  -49.5012   -6.2211  -20.3277 O   0  0  0  0  0  0  0  0  0  0  0  0
  -48.8874   -6.9624  -20.2069 H   0  0  0  0  0  0  0  0  0  0  0  0
  1  2  1  0  0  0
  2  3  2  0  0  0
  3  4  1  0  0  0
  4  5  1  0  0  0
  5  6  2  0  0  0
  6  7  1  0  0  0
  6 13  1  0  0  0
  7  8  2  0  0  0
  7  9  1  0  0  0
  9 10  1  0  0  0
 10 11  2  0  0  0
 10 12  1  0  0  0
 12 13  2  0  0  0
 13 14  1  0  0  0
 14 15  1  0  0  0
 14 20  1  0  0  0
 15 16  1  0  0  0
 15  4  2  0  0  0
 16 17  2  0  0  0
 17 18  1  0  0  0
 17  2  1  0  0  0
 21 20  1  0  0  0
 21 24  1  0  0  0
 21 22  1  0  0  0
 24 27  1  0  0  0
 24 25  1  0  0  0
 27 30  1  0  0  0
 27 28  1  0  0  0
 30 31  1  0  0  0
  9 19  1  0  0  0
 31 32  1  0  0  0
 28 29  1  0  0  0
 25 26  1  0  0  0
 22 23  1  0  0  0
M  END
>  <minimizedAffinity>
-8.28822

>  <minimizedRMSD>
1.16735

$$$$
ZINC000031809867


 31 35  0  0  0  0  0  0  0  0999 V2000
  -48.8155   -0.4640  -25.4578 C   0  0  0  0  0  0  0  0  0  0  0  0
  -49.5256   -0.6515  -24.1613 C   0  0  0  0  0  0  0  0  0  0  0  0
  -50.1986    0.3505  -23.5702 N   0  0  0  0  0  0  0  0  0  0  0  0
  -50.6382   -0.0894  -22.4055 N   0  0  0  0  0  0  0  0  0  0  0  0
  -50.2647   -1.3761  -22.2306 C   0  0  0  0  0  0  0  0  0  0  0  0
  -49.5627   -1.8020  -23.3664 C   0  0  0  0  0  0  0  0  0  0  0  0
  -48.8570   -3.1250  -23.6207 C   0  0  0  0  0  0  0  0  0  0  0  0
  -49.7598   -4.5530  -22.9564 S   0  0  0  0  0  0  0  0  0  0  0  0
  -49.1409   -4.1752  -21.3086 C   0  0  0  0  0  0  0  0  0  0  0  0
  -50.1740   -3.3941  -20.5907 C   0  0  0  0  0  0  0  0  0  0  0  0
  -50.6539   -3.8635  -19.5268 O   0  0  0  0  0  0  0  0  0  0  0  0
  -50.6390   -2.1263  -21.0613 N   0  0  0  0  0  0  0  0  0  0  0  0
  -51.3230   -1.6997  -20.4962 H   0  0  0  0  0  0  0  0  0  0  0  0
  -51.4123    0.7275  -21.5153 C   0  0  0  0  0  0  0  0  0  0  0  0
  -52.4750    1.4430  -21.9927 N   0  0  0  0  0  0  0  0  0  0  0  0
  -53.2168    2.2566  -21.1755 C   0  0  0  0  0  0  0  0  0  0  0  0
  -52.8994    2.3860  -19.8525 N   0  0  0  0  0  0  0  0  0  0  0  0
  -51.8382    1.6893  -19.3807 C   0  0  0  0  0  0  0  0  0  0  0  0
  -51.3441    1.7323  -18.1376 N   0  0  0  0  0  0  0  0  0  0  0  0
  -50.2620    0.9112  -18.2236 C   0  0  0  0  0  0  0  0  0  0  0  0
  -50.0728    0.3760  -19.4608 N   0  0  0  0  0  0  0  0  0  0  0  0
  -51.0950    0.8809  -20.1652 C   0  0  0  0  0  0  0  0  0  0  0  0
  -51.6788    2.2316  -17.3580 H   0  0  0  0  0  0  0  0  0  0  0  0
  -48.5245   -3.3883  -25.0590 C   0  0  0  0  0  0  0  0  0  0  0  0
  -47.2286   -3.7953  -25.3963 C   0  0  0  0  0  0  0  0  0  0  0  0
  -46.8963   -4.0490  -26.7304 C   0  0  0  0  0  0  0  0  0  0  0  0
  -47.8596   -3.8986  -27.7322 C   0  0  0  0  0  0  0  0  0  0  0  0
  -49.1565   -3.4958  -27.4010 C   0  0  0  0  0  0  0  0  0  0  0  0
  -50.1128   -3.3478  -28.3959 O   0  0  0  0  0  0  0  0  0  0  0  0
  -49.4903   -3.2420  -26.0678 C   0  0  0  0  0  0  0  0  0  0  0  0
  -49.8891   -3.5179  -29.2898 H   0  0  0  0  0  0  0  0  0  0  0  0
  1  2  1  0  0  0
  2  3  2  0  0  0
  3  4  1  0  0  0
  4 14  1  0  0  0
 14 15  2  0  0  0
 15 16  1  0  0  0
 16 17  2  0  0  0
 17 18  1  0  0  0
 18 19  1  0  0  0
 19 20  1  0  0  0
 20 21  2  0  0  0
 21 22  1  0  0  0
  4  5  1  0  0  0
  5  6  2  0  0  0
  6  7  1  0  0  0
  7 24  1  0  0  0
 24 25  2  0  0  0
 25 26  1  0  0  0
 26 27  2  0  0  0
 27 28  1  0  0  0
 28 29  1  0  0  0
 28 30  2  0  0  0
  7  8  1  0  0  0
  8  9  1  0  0  0
  9 10  1  0  0  0
 10 11  2  0  0  0
 10 12  1  0  0  0
  6  2  1  0  0  0
 30 24  1  0  0  0
 22 14  1  0  0  0
 12  5  1  0  0  0
 22 18  2  0  0  0
 19 23  1  0  0  0
 29 31  1  0  0  0
 12 13  1  0  0  0
M  END
>  <minimizedAffinity>
-8.28763

>  <minimizedRMSD>
1.92852

$$$$
ZINC000009312448


 37 41  0  0  0  0  0  0  0  0999 V2000
  -49.2135    0.4527  -21.5790 C   0  0  0  0  0  0  0  0  0  0  0  0
  -49.4925    0.4844  -20.0903 C   0  0  0  0  0  0  0  0  0  0  0  0
  -50.7210    0.9450  -19.8566 C   0  0  0  0  0  0  0  0  0  0  0  0
  -51.2791    1.1851  -18.6062 O   0  0  0  0  0  0  0  0  0  0  0  0
  -51.3581    1.2134  -21.1201 C   0  0  0  0  0  0  0  0  0  0  0  0
  -52.5118    1.6940  -21.2764 O   0  0  0  0  0  0  0  0  0  0  0  0
  -50.4704    0.8972  -22.1777 N   0  0  0  0  0  0  0  0  0  0  0  0
  -50.7954    0.9809  -17.8302 H   0  0  0  0  0  0  0  0  0  0  0  0
  -48.2252   -3.5091  -22.9871 C   0  0  0  0  0  0  0  0  0  0  0  0
  -49.3875   -3.2974  -22.2239 C   0  0  0  0  0  0  0  0  0  0  0  0
  -49.7105   -2.0216  -21.7575 C   0  0  0  0  0  0  0  0  0  0  0  0
  -48.8742   -0.9330  -22.0443 C   0  0  0  0  0  0  0  0  0  0  0  0
  -47.7181   -1.1325  -22.8020 C   0  0  0  0  0  0  0  0  0  0  0  0
  -47.3950   -2.4094  -23.2684 C   0  0  0  0  0  0  0  0  0  0  0  0
  -46.9051   -4.7510  -24.6857 C   0  0  0  0  0  0  0  0  0  0  0  0
  -47.8547   -4.8849  -23.5084 C   0  0  0  0  0  0  0  0  0  0  0  0
  -47.1667   -5.6823  -22.4148 C   0  0  0  0  0  0  0  0  0  0  0  0
  -49.0658   -5.6813  -23.9748 C   0  0  0  0  0  0  0  0  0  0  0  0
  -48.4856    0.1527  -19.0617 C   0  0  0  0  0  0  0  0  0  0  0  0
  -47.2802    0.0465  -19.4154 O   0  0  0  0  0  0  0  0  0  0  0  0
  -48.8490   -0.1049  -17.6517 C   0  0  0  0  0  0  0  0  0  0  0  0
  -48.5880    0.8676  -16.6729 C   0  0  0  0  0  0  0  0  0  0  0  0
  -48.9009    0.6284  -15.3308 C   0  0  0  0  0  0  0  0  0  0  0  0
  -49.4689   -0.5912  -14.9582 C   0  0  0  0  0  0  0  0  0  0  0  0
  -49.6975   -1.5826  -15.9213 C   0  0  0  0  0  0  0  0  0  0  0  0
  -49.3964   -1.3381  -17.2627 C   0  0  0  0  0  0  0  0  0  0  0  0
  -50.2233   -2.8130  -15.5192 O   0  0  0  0  0  0  0  0  0  0  0  0
  -50.2603   -3.1762  -14.1375 C   0  0  0  0  0  0  0  0  0  0  0  0
  -50.6312   -1.9633  -13.2809 C   0  0  0  0  0  0  0  0  0  0  0  0
  -49.8134   -0.8431  -13.6274 O   0  0  0  0  0  0  0  0  0  0  0  0
  -50.6360    1.2884  -23.5703 C   0  0  0  0  0  0  0  0  0  0  0  0
  -50.7796    0.0775  -24.4266 C   0  0  0  0  0  0  0  0  0  0  0  0
  -49.8607   -0.1723  -25.4485 C   0  0  0  0  0  0  0  0  0  0  0  0
  -49.9802   -1.3263  -26.2243 C   0  0  0  0  0  0  0  0  0  0  0  0
  -51.0215   -2.2195  -25.9603 C   0  0  0  0  0  0  0  0  0  0  0  0
  -51.9040   -1.9625  -24.9568 N   0  0  0  0  0  0  0  0  0  0  0  0
  -51.8034   -0.8436  -24.1897 C   0  0  0  0  0  0  0  0  0  0  0  0
 15 16  1  0  0  0
 16 17  1  0  0  0
 16 18  1  0  0  0
 16  9  1  0  0  0
  9 10  2  0  0  0
 10 11  1  0  0  0
 11 12  2  0  0  0
  1 12  1  0  0  0
  1  2  1  0  0  0
  2 19  1  0  0  0
 19 20  2  0  0  0
 19 21  1  0  0  0
 21 22  2  0  0  0
 22 23  1  0  0  0
 23 24  2  0  0  0
 24 25  1  0  0  0
 25 26  2  0  0  0
 25 27  1  0  0  0
 27 28  1  0  0  0
 28 29  1  0  0  0
 29 30  1  0  0  0
  2  3  2  0  0  0
  3  4  1  0  0  0
  3  5  1  0  0  0
  5  6  2  0  0  0
  5  7  1  0  0  0
  7 31  1  0  0  0
 31 32  1  0  0  0
 32 33  2  0  0  0
 33 34  1  0  0  0
 34 35  2  0  0  0
 35 36  1  0  0  0
 36 37  2  0  0  0
 12 13  1  0  0  0
 13 14  2  0  0  0
 14  9  1  0  0  0
  7  1  1  0  0  0
 37 32  1  0  0  0
 26 21  1  0  0  0
 30 24  1  0  0  0
  4  8  1  0  0  0
M  END
>  <minimizedAffinity>
-8.28054

>  <minimizedRMSD>
2.70302

$$$$
ZINC000031807721


 31 35  0  0  0  0  0  0  0  0999 V2000
  -49.7995    0.2140  -23.7261 C   0  0  0  0  0  0  0  0  0  0  0  0
  -50.0241   -0.1607  -22.3016 C   0  0  0  0  0  0  0  0  0  0  0  0
  -50.3137    0.7579  -21.3642 N   0  0  0  0  0  0  0  0  0  0  0  0
  -50.3655    0.1424  -20.1972 N   0  0  0  0  0  0  0  0  0  0  0  0
  -50.1190   -1.1756  -20.3626 C   0  0  0  0  0  0  0  0  0  0  0  0
  -49.9223   -1.4317  -21.7265 C   0  0  0  0  0  0  0  0  0  0  0  0
  -49.5238   -2.7285  -22.4138 C   0  0  0  0  0  0  0  0  0  0  0  0
  -50.3042   -4.1936  -21.6792 S   0  0  0  0  0  0  0  0  0  0  0  0
  -49.1013   -4.1609  -20.3401 C   0  0  0  0  0  0  0  0  0  0  0  0
  -49.7082   -3.4596  -19.1857 C   0  0  0  0  0  0  0  0  0  0  0  0
  -49.8363   -4.0831  -18.1007 O   0  0  0  0  0  0  0  0  0  0  0  0
  -50.1472   -2.1006  -19.2609 N   0  0  0  0  0  0  0  0  0  0  0  0
  -50.5287   -1.7413  -18.4274 H   0  0  0  0  0  0  0  0  0  0  0  0
  -50.6664    0.8315  -18.9750 C   0  0  0  0  0  0  0  0  0  0  0  0
  -51.7647    1.6423  -18.8990 N   0  0  0  0  0  0  0  0  0  0  0  0
  -52.0641    2.3385  -17.7563 C   0  0  0  0  0  0  0  0  0  0  0  0
  -51.2550    2.2504  -16.6584 N   0  0  0  0  0  0  0  0  0  0  0  0
  -50.1587    1.4592  -16.7365 C   0  0  0  0  0  0  0  0  0  0  0  0
  -49.2250    1.2935  -15.7921 N   0  0  0  0  0  0  0  0  0  0  0  0
  -48.3335    0.4660  -16.4028 C   0  0  0  0  0  0  0  0  0  0  0  0
  -48.6789    0.1257  -17.6748 N   0  0  0  0  0  0  0  0  0  0  0  0
  -49.8450    0.7631  -17.8492 C   0  0  0  0  0  0  0  0  0  0  0  0
  -49.1915    1.6741  -14.8847 H   0  0  0  0  0  0  0  0  0  0  0  0
  -49.7562   -2.7467  -23.8952 C   0  0  0  0  0  0  0  0  0  0  0  0
  -48.6593   -2.6506  -24.7589 C   0  0  0  0  0  0  0  0  0  0  0  0
  -48.8512   -2.6679  -26.1435 C   0  0  0  0  0  0  0  0  0  0  0  0
  -50.1412   -2.7835  -26.6699 C   0  0  0  0  0  0  0  0  0  0  0  0
  -50.3306   -2.7995  -28.0447 O   0  0  0  0  0  0  0  0  0  0  0  0
  -51.2404   -2.8838  -25.8122 C   0  0  0  0  0  0  0  0  0  0  0  0
  -51.0501   -2.8666  -24.4276 C   0  0  0  0  0  0  0  0  0  0  0  0
  -49.5939   -2.7322  -28.6199 H   0  0  0  0  0  0  0  0  0  0  0  0
  1  2  1  0  0  0
  2  3  2  0  0  0
  3  4  1  0  0  0
  4 14  1  0  0  0
 14 15  2  0  0  0
 15 16  1  0  0  0
 16 17  2  0  0  0
 17 18  1  0  0  0
 18 19  1  0  0  0
 19 20  1  0  0  0
 20 21  2  0  0  0
 21 22  1  0  0  0
  4  5  1  0  0  0
  5  6  2  0  0  0
  6  7  1  0  0  0
  7 24  1  0  0  0
 24 25  2  0  0  0
 25 26  1  0  0  0
 26 27  2  0  0  0
 27 28  1  0  0  0
 27 29  1  0  0  0
 29 30  2  0  0  0
  7  8  1  0  0  0
  8  9  1  0  0  0
  9 10  1  0  0  0
 10 11  2  0  0  0
 10 12  1  0  0  0
  6  2  1  0  0  0
 30 24  1  0  0  0
 22 14  1  0  0  0
 12  5  1  0  0  0
 22 18  2  0  0  0
 19 23  1  0  0  0
 28 31  1  0  0  0
 12 13  1  0  0  0
M  END
>  <minimizedAffinity>
-8.27795

>  <minimizedRMSD>
3.08317

$$$$
ZINC000018200369


 31 35  0  0  0  0  0  0  0  0999 V2000
  -49.3666   -0.1159  -21.6429 C   0  0  0  0  0  0  0  0  0  0  0  0
  -50.6797    0.5256  -21.9680 C   0  0  0  0  0  0  0  0  0  0  0  0
  -51.4232    1.5023  -21.3533 C   0  0  0  0  0  0  0  0  0  0  0  0
  -51.0821    2.1793  -20.1898 O   0  0  0  0  0  0  0  0  0  0  0  0
  -52.5605    1.7158  -22.0507 N   0  0  0  0  0  0  0  0  0  0  0  0
  -52.5629    0.8992  -23.1004 N   0  0  0  0  0  0  0  0  0  0  0  0
  -51.4254    0.1836  -23.0442 C   0  0  0  0  0  0  0  0  0  0  0  0
  -50.9997   -0.8005  -23.9764 N   0  0  0  0  0  0  0  0  0  0  0  0
  -49.7114   -1.4164  -23.7956 C   0  0  0  0  0  0  0  0  0  0  0  0
  -48.9207   -1.1101  -22.7234 C   0  0  0  0  0  0  0  0  0  0  0  0
  -47.5617   -1.6993  -22.6294 C   0  0  0  0  0  0  0  0  0  0  0  0
  -46.7861   -1.3684  -21.6938 O   0  0  0  0  0  0  0  0  0  0  0  0
  -47.0943   -2.7173  -23.6265 C   0  0  0  0  0  0  0  0  0  0  0  0
  -47.7742   -2.5408  -24.9826 C   0  0  0  0  0  0  0  0  0  0  0  0
  -47.4591   -3.7474  -25.8407 C   0  0  0  0  0  0  0  0  0  0  0  0
  -47.2448   -1.3009  -25.6870 C   0  0  0  0  0  0  0  0  0  0  0  0
  -49.2908   -2.4500  -24.8071 C   0  0  0  0  0  0  0  0  0  0  0  0
  -50.2766    1.9837  -19.7529 H   0  0  0  0  0  0  0  0  0  0  0  0
  -53.2641    0.8314  -23.7880 H   0  0  0  0  0  0  0  0  0  0  0  0
  -51.5757   -1.0566  -24.7326 H   0  0  0  0  0  0  0  0  0  0  0  0
  -50.5117   -2.8637  -21.0326 C   0  0  0  0  0  0  0  0  0  0  0  0
  -49.9103   -2.0000  -19.9764 C   0  0  0  0  0  0  0  0  0  0  0  0
  -49.8811   -2.4641  -18.6986 N   0  0  0  0  0  0  0  0  0  0  0  0
  -49.3526   -1.7258  -17.6903 C   0  0  0  0  0  0  0  0  0  0  0  0
  -49.3310   -2.2193  -16.3832 C   0  0  0  0  0  0  0  0  0  0  0  0
  -48.7832   -1.4432  -15.3561 C   0  0  0  0  0  0  0  0  0  0  0  0
  -48.2581   -0.1760  -15.6351 C   0  0  0  0  0  0  0  0  0  0  0  0
  -48.2783    0.3211  -16.9427 C   0  0  0  0  0  0  0  0  0  0  0  0
  -48.8244   -0.4515  -17.9709 C   0  0  0  0  0  0  0  0  0  0  0  0
  -48.8519    0.0148  -19.2447 N   0  0  0  0  0  0  0  0  0  0  0  0
  -49.3767   -0.7207  -20.2621 C   0  0  0  0  0  0  0  0  0  0  0  0
 21 22  1  0  0  0
 22 23  2  0  0  0
 23 24  1  0  0  0
 24 25  2  0  0  0
 25 26  1  0  0  0
 26 27  2  0  0  0
 27 28  1  0  0  0
 28 29  2  0  0  0
 29 30  1  0  0  0
 30 31  2  0  0  0
  1 31  1  0  0  0
  1  2  1  0  0  0
  2  3  1  0  0  0
  3  4  1  0  0  0
  3  5  2  0  0  0
  5  6  1  0  0  0
  6  7  1  0  0  0
  7  8  1  0  0  0
  8  9  1  0  0  0
  9 10  2  0  0  0
 10 11  1  0  0  0
 11 12  2  0  0  0
 11 13  1  0  0  0
 13 14  1  0  0  0
 14 15  1  0  0  0
 14 16  1  0  0  0
 14 17  1  0  0  0
 31 22  1  0  0  0
 10  1  1  0  0  0
 29 24  1  0  0  0
  7  2  2  0  0  0
 17  9  1  0  0  0
  4 18  1  0  0  0
  6 19  1  0  0  0
  8 20  1  0  0  0
M  END
>  <minimizedAffinity>
-8.27093

>  <minimizedRMSD>
1.48404

$$$$
ZINC000018200371


 31 35  0  0  0  0  0  0  0  0999 V2000
  -49.3668   -0.1159  -21.6431 C   0  0  0  0  0  0  0  0  0  0  0  0
  -50.6799    0.5256  -21.9682 C   0  0  0  0  0  0  0  0  0  0  0  0
  -51.4233    1.5024  -21.3535 C   0  0  0  0  0  0  0  0  0  0  0  0
  -51.0823    2.1793  -20.1900 O   0  0  0  0  0  0  0  0  0  0  0  0
  -52.5605    1.7159  -22.0510 N   0  0  0  0  0  0  0  0  0  0  0  0
  -52.5630    0.8993  -23.1006 N   0  0  0  0  0  0  0  0  0  0  0  0
  -51.4256    0.1836  -23.0443 C   0  0  0  0  0  0  0  0  0  0  0  0
  -50.9998   -0.8005  -23.9766 N   0  0  0  0  0  0  0  0  0  0  0  0
  -49.7116   -1.4164  -23.7957 C   0  0  0  0  0  0  0  0  0  0  0  0
  -48.9208   -1.1101  -22.7236 C   0  0  0  0  0  0  0  0  0  0  0  0
  -47.5618   -1.6992  -22.6295 C   0  0  0  0  0  0  0  0  0  0  0  0
  -46.7863   -1.3685  -21.6940 O   0  0  0  0  0  0  0  0  0  0  0  0
  -47.0945   -2.7172  -23.6266 C   0  0  0  0  0  0  0  0  0  0  0  0
  -47.7744   -2.5408  -24.9827 C   0  0  0  0  0  0  0  0  0  0  0  0
  -47.4594   -3.7474  -25.8408 C   0  0  0  0  0  0  0  0  0  0  0  0
  -47.2448   -1.3010  -25.6872 C   0  0  0  0  0  0  0  0  0  0  0  0
  -49.2911   -2.4500  -24.8073 C   0  0  0  0  0  0  0  0  0  0  0  0
  -50.2768    1.9837  -19.7531 H   0  0  0  0  0  0  0  0  0  0  0  0
  -53.2642    0.8314  -23.7882 H   0  0  0  0  0  0  0  0  0  0  0  0
  -51.5757   -1.0565  -24.7329 H   0  0  0  0  0  0  0  0  0  0  0  0
  -50.5122   -2.8635  -21.0326 C   0  0  0  0  0  0  0  0  0  0  0  0
  -49.9105   -1.9999  -19.9765 C   0  0  0  0  0  0  0  0  0  0  0  0
  -49.8813   -2.4640  -18.6988 N   0  0  0  0  0  0  0  0  0  0  0  0
  -49.3527   -1.7258  -17.6905 C   0  0  0  0  0  0  0  0  0  0  0  0
  -49.3310   -2.2193  -16.3833 C   0  0  0  0  0  0  0  0  0  0  0  0
  -48.7831   -1.4434  -15.3563 C   0  0  0  0  0  0  0  0  0  0  0  0
  -48.2579   -0.1762  -15.6354 C   0  0  0  0  0  0  0  0  0  0  0  0
  -48.2781    0.3210  -16.9430 C   0  0  0  0  0  0  0  0  0  0  0  0
  -48.8244   -0.4516  -17.9711 C   0  0  0  0  0  0  0  0  0  0  0  0
  -48.8520    0.0147  -19.2450 N   0  0  0  0  0  0  0  0  0  0  0  0
  -49.3768   -0.7207  -20.2623 C   0  0  0  0  0  0  0  0  0  0  0  0
 21 22  1  0  0  0
 22 23  2  0  0  0
 23 24  1  0  0  0
 24 25  2  0  0  0
 25 26  1  0  0  0
 26 27  2  0  0  0
 27 28  1  0  0  0
 28 29  2  0  0  0
 29 30  1  0  0  0
 30 31  2  0  0  0
  1 31  1  0  0  0
  1  2  1  0  0  0
  2  3  1  0  0  0
  3  4  1  0  0  0
  3  5  2  0  0  0
  5  6  1  0  0  0
  6  7  1  0  0  0
  7  8  1  0  0  0
  8  9  1  0  0  0
  9 10  2  0  0  0
 10 11  1  0  0  0
 11 12  2  0  0  0
 11 13  1  0  0  0
 13 14  1  0  0  0
 14 15  1  0  0  0
 14 16  1  0  0  0
 14 17  1  0  0  0
 31 22  1  0  0  0
 10  1  1  0  0  0
 29 24  1  0  0  0
  7  2  2  0  0  0
 17  9  1  0  0  0
  4 18  1  0  0  0
  6 19  1  0  0  0
  8 20  1  0  0  0
M  END
>  <minimizedAffinity>
-8.27045

>  <minimizedRMSD>
1.48407

$$$$
ZINC000012762430


 35 39  0  0  0  0  0  0  0  0999 V2000
  -50.9995   -0.1308  -18.9768 C   0  0  0  0  0  0  0  0  0  0  0  0
  -51.9250    0.2141  -19.9686 C   0  0  0  0  0  0  0  0  0  0  0  0
  -52.6737    1.3856  -19.8581 C   0  0  0  0  0  0  0  0  0  0  0  0
  -53.5008    1.6880  -20.7567 O   0  0  0  0  0  0  0  0  0  0  0  0
  -52.5152    2.1982  -18.7814 N   0  0  0  0  0  0  0  0  0  0  0  0
  -51.6322    1.9042  -17.7915 C   0  0  0  0  0  0  0  0  0  0  0  0
  -51.5009    2.7697  -16.7018 C   0  0  0  0  0  0  0  0  0  0  0  0
  -50.5911    2.4807  -15.6825 C   0  0  0  0  0  0  0  0  0  0  0  0
  -49.8045    1.3264  -15.7479 C   0  0  0  0  0  0  0  0  0  0  0  0
  -49.9340    0.4565  -16.8348 C   0  0  0  0  0  0  0  0  0  0  0  0
  -50.8482    0.7271  -17.8639 C   0  0  0  0  0  0  0  0  0  0  0  0
  -53.0532    3.0201  -18.7166 H   0  0  0  0  0  0  0  0  0  0  0  0
  -49.4292   -1.6973  -20.2481 N   0  0  0  0  0  0  0  0  0  0  0  0
  -48.8933   -3.0394  -20.4258 C   0  0  0  0  0  0  0  0  0  0  0  0
  -50.2552   -1.4099  -19.1040 C   0  0  0  0  0  0  0  0  0  0  0  0
  -50.3720   -2.2767  -18.1949 O   0  0  0  0  0  0  0  0  0  0  0  0
  -48.9107   -0.6275  -21.0952 C   0  0  0  0  0  0  0  0  0  0  0  0
  -50.8425   -1.1053  -24.0408 C   0  0  0  0  0  0  0  0  0  0  0  0
  -50.7530    0.2738  -24.1157 C   0  0  0  0  0  0  0  0  0  0  0  0
  -50.0006    0.6526  -23.0153 C   0  0  0  0  0  0  0  0  0  0  0  0
  -49.6985   -0.5247  -22.3590 C   0  0  0  0  0  0  0  0  0  0  0  0
  -50.2143   -1.5529  -22.9825 O   0  0  0  0  0  0  0  0  0  0  0  0
  -49.2782   -2.1979  -26.1606 C   0  0  0  0  0  0  0  0  0  0  0  0
  -50.7610   -2.5469  -26.1699 C   0  0  0  0  0  0  0  0  0  0  0  0
  -51.0650   -3.4031  -24.9591 C   0  0  0  0  0  0  0  0  0  0  0  0
  -51.5912   -1.9808  -25.0046 C   0  0  0  0  0  0  0  0  0  0  0  0
  -48.6646    0.9571  -14.4603 S   0  0  0  0  0  0  0  0  0  0  0  0
  -47.3204    0.6557  -15.0613 O   0  0  0  0  0  0  0  0  0  0  0  0
  -48.5242    2.1542  -13.5621 O   0  0  0  0  0  0  0  0  0  0  0  0
  -49.2003   -0.4031  -13.5246 N   0  0  0  0  0  0  0  0  0  0  0  0
  -50.6512   -0.2899  -13.3582 C   0  0  0  0  0  0  0  0  0  0  0  0
  -51.1936   -1.5673  -12.7133 C   0  0  0  0  0  0  0  0  0  0  0  0
  -50.9285   -2.6696  -13.5470 O   0  0  0  0  0  0  0  0  0  0  0  0
  -49.5307   -2.8281  -13.5877 C   0  0  0  0  0  0  0  0  0  0  0  0
  -48.8923   -1.6208  -14.2793 C   0  0  0  0  0  0  0  0  0  0  0  0
 24 23  1  0  0  0
 24 25  1  0  0  0
 25 26  1  0  0  0
 26 18  1  0  0  0
 18 19  2  0  0  0
 19 20  1  0  0  0
 20 21  2  0  0  0
 21 17  1  0  0  0
 17 13  1  0  0  0
 13 14  1  0  0  0
 13 15  1  0  0  0
 15 16  2  0  0  0
 15  1  1  0  0  0
  1  2  2  0  0  0
  2  3  1  0  0  0
  3  4  2  0  0  0
  3  5  1  0  0  0
  5  6  1  0  0  0
  6  7  2  0  0  0
  7  8  1  0  0  0
  8  9  2  0  0  0
  9 27  1  0  0  0
 27 28  2  0  0  0
 27 29  2  0  0  0
 27 30  1  0  0  0
 30 31  1  0  0  0
 31 32  1  0  0  0
 32 33  1  0  0  0
 33 34  1  0  0  0
 34 35  1  0  0  0
  9 10  1  0  0  0
 10 11  2  0  0  0
 21 22  1  0  0  0
 26 24  1  0  0  0
 22 18  1  0  0  0
 11  1  1  0  0  0
 11  6  1  0  0  0
 35 30  1  0  0  0
  5 12  1  0  0  0
M  END
>  <minimizedAffinity>
-8.26124

>  <minimizedRMSD>
1.83616

$$$$
ZINC000003368851 ZINC03368851 CSC027878501 MCULE-2701712437 MolPort-005-844-179 PubChem-2486663


 35 38  0  0  0  0  0  0  0  0999 V2000
  -52.1120    2.2163  -18.2622 C   0  0  0  0  0  0  0  0  0  0  0  0
  -52.7472    2.5431  -19.4169 N   0  0  0  0  0  0  0  0  0  0  0  0
  -52.7372    1.6860  -20.4700 C   0  0  0  0  0  0  0  0  0  0  0  0
  -53.4140    2.0268  -21.6730 N   0  0  0  0  0  0  0  0  0  0  0  0
  -52.0879    0.4995  -20.3728 N   0  0  0  0  0  0  0  0  0  0  0  0
  -51.4572    0.1649  -19.2191 C   0  0  0  0  0  0  0  0  0  0  0  0
  -51.4703    1.0223  -18.1670 N   0  0  0  0  0  0  0  0  0  0  0  0
  -53.8859    2.8878  -21.7453 H   0  0  0  0  0  0  0  0  0  0  0  0
  -53.4108    1.4018  -22.4336 H   0  0  0  0  0  0  0  0  0  0  0  0
  -52.1435    3.1354  -17.1608 N   0  0  0  0  0  0  0  0  0  0  0  0
  -52.6702    3.9567  -17.2923 H   0  0  0  0  0  0  0  0  0  0  0  0
  -51.6721    5.4880  -15.5494 C   0  0  0  0  0  0  0  0  0  0  0  0
  -51.2612    4.1304  -15.0883 C   0  0  0  0  0  0  0  0  0  0  0  0
  -50.6436    3.9993  -13.8386 C   0  0  0  0  0  0  0  0  0  0  0  0
  -50.2510    2.7410  -13.3727 C   0  0  0  0  0  0  0  0  0  0  0  0
  -50.4696    1.6086  -14.1588 C   0  0  0  0  0  0  0  0  0  0  0  0
  -51.0842    1.7357  -15.4082 C   0  0  0  0  0  0  0  0  0  0  0  0
  -51.4917    2.9921  -15.8849 C   0  0  0  0  0  0  0  0  0  0  0  0
  -50.7304   -1.1327  -19.1186 C   0  0  0  0  0  0  0  0  0  0  0  0
  -49.4972   -0.9482  -18.4349 O   0  0  0  0  0  0  0  0  0  0  0  0
  -48.5160   -1.9427  -18.3853 C   0  0  0  0  0  0  0  0  0  0  0  0
  -48.5373   -2.8336  -17.4910 O   0  0  0  0  0  0  0  0  0  0  0  0
  -47.4203   -1.9418  -19.3927 C   0  0  0  0  0  0  0  0  0  0  0  0
  -47.1261   -0.2508  -20.0048 S   0  0  0  0  0  0  0  0  0  0  0  0
  -47.8452   -0.5887  -21.6084 C   0  0  0  0  0  0  0  0  0  0  0  0
  -49.0054    0.0818  -22.0100 C   0  0  0  0  0  0  0  0  0  0  0  0
  -49.5420   -0.1583  -23.2762 C   0  0  0  0  0  0  0  0  0  0  0  0
  -50.7615    0.5932  -23.6925 C   0  0  0  0  0  0  0  0  0  0  0  0
  -48.9146   -1.0835  -24.1295 C   0  0  0  0  0  0  0  0  0  0  0  0
  -49.4134   -1.3627  -25.4112 C   0  0  0  0  0  0  0  0  0  0  0  0
  -48.7654   -2.2902  -26.2324 C   0  0  0  0  0  0  0  0  0  0  0  0
  -47.6138   -2.9420  -25.7823 C   0  0  0  0  0  0  0  0  0  0  0  0
  -47.1033   -2.6670  -24.5098 C   0  0  0  0  0  0  0  0  0  0  0  0
  -47.7472   -1.7443  -23.6809 C   0  0  0  0  0  0  0  0  0  0  0  0
  -47.2415   -1.4721  -22.4481 N   0  0  0  0  0  0  0  0  0  0  0  0
 12 13  1  0  0  0
 13 14  2  0  0  0
 14 15  1  0  0  0
 15 16  2  0  0  0
 16 17  1  0  0  0
 17 18  2  0  0  0
 18 10  1  0  0  0
 18 13  1  0  0  0
 10  1  1  0  0  0
  1  2  2  0  0  0
  2  3  1  0  0  0
  3  4  1  0  0  0
  3  5  2  0  0  0
  5  6  1  0  0  0
  6 19  1  0  0  0
  6  7  2  0  0  0
 19 20  1  0  0  0
 20 21  1  0  0  0
 21 22  2  0  0  0
 21 23  1  0  0  0
 23 24  1  0  0  0
 24 25  1  0  0  0
 25 26  2  0  0  0
 26 27  1  0  0  0
 27 28  1  0  0  0
 27 29  2  0  0  0
 29 30  1  0  0  0
 30 31  2  0  0  0
 31 32  1  0  0  0
 32 33  2  0  0  0
 33 34  1  0  0  0
 34 35  2  0  0  0
 34 29  1  0  0  0
 35 25  1  0  0  0
  7  1  1  0  0  0
 10 11  1  0  0  0
  4  8  1  0  0  0
  4  9  1  0  0  0
M  END
>  <minimizedAffinity>
-8.24423

>  <minimizedRMSD>
1.38752

$$$$
ZINC000031809031


 31 35  0  0  0  0  0  0  0  0999 V2000
  -47.2862   -1.5925  -23.9415 C   0  0  0  0  0  0  0  0  0  0  0  0
  -48.2805   -1.3419  -22.8615 C   0  0  0  0  0  0  0  0  0  0  0  0
  -49.2474   -0.4112  -22.9463 N   0  0  0  0  0  0  0  0  0  0  0  0
  -49.9470   -0.4582  -21.8242 N   0  0  0  0  0  0  0  0  0  0  0  0
  -49.4634   -1.4350  -21.0232 C   0  0  0  0  0  0  0  0  0  0  0  0
  -48.3667   -2.0187  -21.6564 C   0  0  0  0  0  0  0  0  0  0  0  0
  -47.4704   -3.1578  -21.2582 C   0  0  0  0  0  0  0  0  0  0  0  0
  -47.2174   -3.3613  -19.4668 S   0  0  0  0  0  0  0  0  0  0  0  0
  -48.8972   -3.9720  -19.1992 C   0  0  0  0  0  0  0  0  0  0  0  0
  -49.7967   -2.8439  -18.8574 C   0  0  0  0  0  0  0  0  0  0  0  0
  -50.3719   -2.8552  -17.7389 O   0  0  0  0  0  0  0  0  0  0  0  0
  -50.0660   -1.7680  -19.7609 N   0  0  0  0  0  0  0  0  0  0  0  0
  -50.7804   -1.1557  -19.4712 H   0  0  0  0  0  0  0  0  0  0  0  0
  -51.0832    0.3856  -21.5874 C   0  0  0  0  0  0  0  0  0  0  0  0
  -51.9147    0.7201  -22.6199 N   0  0  0  0  0  0  0  0  0  0  0  0
  -52.9921    1.5476  -22.4337 C   0  0  0  0  0  0  0  0  0  0  0  0
  -53.2554    2.0766  -21.2013 N   0  0  0  0  0  0  0  0  0  0  0  0
  -52.4248    1.7580  -20.1803 C   0  0  0  0  0  0  0  0  0  0  0  0
  -52.4877    2.2207  -18.9262 N   0  0  0  0  0  0  0  0  0  0  0  0
  -51.3996    1.6447  -18.3460 C   0  0  0  0  0  0  0  0  0  0  0  0
  -50.6762    0.8584  -19.1896 N   0  0  0  0  0  0  0  0  0  0  0  0
  -51.3599    0.9442  -20.3391 C   0  0  0  0  0  0  0  0  0  0  0  0
  -53.1531    2.8252  -18.5247 H   0  0  0  0  0  0  0  0  0  0  0  0
  -47.7333   -4.4449  -21.9961 C   0  0  0  0  0  0  0  0  0  0  0  0
  -48.9997   -4.7038  -22.5450 C   0  0  0  0  0  0  0  0  0  0  0  0
  -49.2447   -5.8943  -23.2326 C   0  0  0  0  0  0  0  0  0  0  0  0
  -48.2255   -6.8370  -23.3795 C   0  0  0  0  0  0  0  0  0  0  0  0
  -48.4622   -7.9918  -24.0463 F   0  0  0  0  0  0  0  0  0  0  0  0
  -46.9613   -6.5885  -22.8405 C   0  0  0  0  0  0  0  0  0  0  0  0
  -46.7088   -5.3986  -22.1504 C   0  0  0  0  0  0  0  0  0  0  0  0
  -45.0983   -5.1330  -21.4995 Cl  0  0  0  0  0  0  0  0  0  0  0  0
  1  2  1  0  0  0
  2  3  2  0  0  0
  3  4  1  0  0  0
  4 14  1  0  0  0
 14 15  2  0  0  0
 15 16  1  0  0  0
 16 17  2  0  0  0
 17 18  1  0  0  0
 18 19  1  0  0  0
 19 20  1  0  0  0
 20 21  2  0  0  0
 21 22  1  0  0  0
  4  5  1  0  0  0
  5  6  2  0  0  0
  6  7  1  0  0  0
  7 24  1  0  0  0
 24 25  2  0  0  0
 25 26  1  0  0  0
 26 27  2  0  0  0
 27 28  1  0  0  0
 27 29  1  0  0  0
 29 30  2  0  0  0
 30 31  1  0  0  0
  7  8  1  0  0  0
  8  9  1  0  0  0
  9 10  1  0  0  0
 10 11  2  0  0  0
 10 12  1  0  0  0
  6  2  1  0  0  0
 30 24  1  0  0  0
 22 14  1  0  0  0
 12  5  1  0  0  0
 22 18  2  0  0  0
 19 23  1  0  0  0
 12 13  1  0  0  0
M  END
>  <minimizedAffinity>
-8.23908

>  <minimizedRMSD>
0.81391

$$$$
ZINC000005372517 ZINC05372517 PubChem-92261927


 32 34  0  0  0  0  0  0  0  0999 V2000
  -48.9940   -0.9552  -25.4202 C   0  0  0  0  0  0  0  0  0  0  0  0
  -49.0814   -0.8100  -23.9385 C   0  0  0  0  0  0  0  0  0  0  0  0
  -50.0451    0.0479  -23.4047 C   0  0  0  0  0  0  0  0  0  0  0  0
  -50.1619    0.2135  -22.0227 C   0  0  0  0  0  0  0  0  0  0  0  0
  -51.1307    1.0784  -21.5248 C   0  0  0  0  0  0  0  0  0  0  0  0
  -51.2582    1.2580  -20.1525 C   0  0  0  0  0  0  0  0  0  0  0  0
  -52.2104    2.1175  -19.5918 C   0  0  0  0  0  0  0  0  0  0  0  0
  -53.0032    2.7673  -20.3249 O   0  0  0  0  0  0  0  0  0  0  0  0
  -52.2825    2.2558  -18.2407 N   0  0  0  0  0  0  0  0  0  0  0  0
  -51.4591    1.5880  -17.3868 C   0  0  0  0  0  0  0  0  0  0  0  0
  -51.5756    1.7603  -16.1462 O   0  0  0  0  0  0  0  0  0  0  0  0
  -50.4857    0.7129  -17.8726 C   0  0  0  0  0  0  0  0  0  0  0  0
  -50.3494    0.5132  -19.2516 C   0  0  0  0  0  0  0  0  0  0  0  0
  -49.4108   -0.3363  -19.7782 N   0  0  0  0  0  0  0  0  0  0  0  0
  -49.3014   -0.4912  -21.1415 C   0  0  0  0  0  0  0  0  0  0  0  0
  -48.3345   -1.3494  -21.6962 C   0  0  0  0  0  0  0  0  0  0  0  0
  -48.2200   -1.5126  -23.0789 C   0  0  0  0  0  0  0  0  0  0  0  0
  -47.1761   -2.4381  -23.6058 C   0  0  0  0  0  0  0  0  0  0  0  0
  -52.9588    2.8644  -17.8645 H   0  0  0  0  0  0  0  0  0  0  0  0
  -48.5243   -1.0853  -18.8783 C   0  0  0  0  0  0  0  0  0  0  0  0
  -48.9444   -2.5479  -18.8006 C   0  0  0  0  0  0  0  0  0  0  0  0
  -50.2344   -2.6520  -18.2733 O   0  0  0  0  0  0  0  0  0  0  0  0
  -50.2484   -2.2807  -17.3773 H   0  0  0  0  0  0  0  0  0  0  0  0
  -47.9485   -3.3334  -17.9531 C   0  0  0  0  0  0  0  0  0  0  0  0
  -48.2253   -3.1844  -16.5896 O   0  0  0  0  0  0  0  0  0  0  0  0
  -49.1067   -3.5411  -16.3978 H   0  0  0  0  0  0  0  0  0  0  0  0
  -47.9252   -4.8083  -18.3553 C   0  0  0  0  0  0  0  0  0  0  0  0
  -48.9317   -5.5291  -17.7066 O   0  0  0  0  0  0  0  0  0  0  0  0
  -48.7807   -5.5050  -16.7487 H   0  0  0  0  0  0  0  0  0  0  0  0
  -46.5634   -5.4408  -18.0965 C   0  0  0  0  0  0  0  0  0  0  0  0
  -46.2811   -5.4740  -16.7292 O   0  0  0  0  0  0  0  0  0  0  0  0
  -46.2662   -4.5691  -16.3801 H   0  0  0  0  0  0  0  0  0  0  0  0
  1  2  1  0  0  0
  2  3  2  0  0  0
  3  4  1  0  0  0
  4  5  1  0  0  0
  5  6  2  0  0  0
  6  7  1  0  0  0
  6 13  1  0  0  0
  7  8  2  0  0  0
  7  9  1  0  0  0
  9 10  1  0  0  0
 10 11  2  0  0  0
 10 12  1  0  0  0
 12 13  2  0  0  0
 13 14  1  0  0  0
 14 15  1  0  0  0
 14 20  1  0  0  0
 15 16  1  0  0  0
 15  4  2  0  0  0
 16 17  2  0  0  0
 17 18  1  0  0  0
 17  2  1  0  0  0
 21 20  1  0  0  0
 21 24  1  0  0  0
 21 22  1  0  0  0
 24 27  1  0  0  0
 24 25  1  0  0  0
 27 30  1  0  0  0
 27 28  1  0  0  0
 30 31  1  0  0  0
  9 19  1  0  0  0
 31 32  1  0  0  0
 28 29  1  0  0  0
 25 26  1  0  0  0
 22 23  1  0  0  0
M  END
>  <minimizedAffinity>
-8.23752

>  <minimizedRMSD>
0.51673

$$$$
ZINC000005011747 PubChem-92247271


 33 35  0  0  0  0  0  0  0  0999 V2000
  -47.1455   -2.1998  -24.0070 C   0  0  0  0  0  0  0  0  0  0  0  0
  -48.2756   -1.3666  -23.5043 C   0  0  0  0  0  0  0  0  0  0  0  0
  -48.3285   -1.0605  -22.1441 C   0  0  0  0  0  0  0  0  0  0  0  0
  -49.3721   -0.2823  -21.6115 C   0  0  0  0  0  0  0  0  0  0  0  0
  -50.3831    0.1998  -22.4861 C   0  0  0  0  0  0  0  0  0  0  0  0
  -50.3185   -0.1155  -23.8518 C   0  0  0  0  0  0  0  0  0  0  0  0
  -49.2781   -0.8918  -24.3641 C   0  0  0  0  0  0  0  0  0  0  0  0
  -49.2629   -1.1958  -25.8239 C   0  0  0  0  0  0  0  0  0  0  0  0
  -51.4123    0.9615  -22.0101 N   0  0  0  0  0  0  0  0  0  0  0  0
  -51.4801    1.2745  -20.6822 C   0  0  0  0  0  0  0  0  0  0  0  0
  -52.4993    2.0579  -20.1106 C   0  0  0  0  0  0  0  0  0  0  0  0
  -53.4357    2.5268  -20.8098 O   0  0  0  0  0  0  0  0  0  0  0  0
  -52.4789    2.3190  -18.7774 N   0  0  0  0  0  0  0  0  0  0  0  0
  -51.5016    1.8489  -17.9580 C   0  0  0  0  0  0  0  0  0  0  0  0
  -51.5318    2.1224  -16.7305 O   0  0  0  0  0  0  0  0  0  0  0  0
  -50.4937    1.0864  -18.4526 N   0  0  0  0  0  0  0  0  0  0  0  0
  -50.4306    0.7713  -19.7726 C   0  0  0  0  0  0  0  0  0  0  0  0
  -49.4219   -0.0018  -20.2697 N   0  0  0  0  0  0  0  0  0  0  0  0
  -52.3773    1.4113  -22.8872 O   0  0  0  0  0  0  0  0  0  0  0  0
  -53.1983    2.8688  -18.3907 H   0  0  0  0  0  0  0  0  0  0  0  0
  -48.3878   -0.5201  -19.3655 C   0  0  0  0  0  0  0  0  0  0  0  0
  -48.9334   -1.6103  -18.4431 C   0  0  0  0  0  0  0  0  0  0  0  0
  -48.7442   -1.2026  -17.1213 O   0  0  0  0  0  0  0  0  0  0  0  0
  -47.7969   -1.0794  -16.9534 H   0  0  0  0  0  0  0  0  0  0  0  0
  -48.2392   -2.9544  -18.6867 C   0  0  0  0  0  0  0  0  0  0  0  0
  -47.1070   -3.0760  -17.8740 O   0  0  0  0  0  0  0  0  0  0  0  0
  -47.3735   -3.0461  -16.9418 H   0  0  0  0  0  0  0  0  0  0  0  0
  -49.1988   -4.1174  -18.4255 C   0  0  0  0  0  0  0  0  0  0  0  0
  -49.6468   -4.1206  -17.1016 O   0  0  0  0  0  0  0  0  0  0  0  0
  -48.8933   -4.2539  -16.5056 H   0  0  0  0  0  0  0  0  0  0  0  0
  -48.5820   -5.4616  -18.7911 C   0  0  0  0  0  0  0  0  0  0  0  0
  -48.2264   -6.1750  -17.6447 O   0  0  0  0  0  0  0  0  0  0  0  0
  -47.5716   -5.6687  -17.1390 H   0  0  0  0  0  0  0  0  0  0  0  0
  1  2  1  0  0  0
  2  3  2  0  0  0
  3  4  1  0  0  0
  4  5  2  0  0  0
  5  6  1  0  0  0
  6  7  2  0  0  0
  7  8  1  0  0  0
  5  9  1  0  0  0
  9 10  2  0  0  0
 10 11  1  0  0  0
 11 12  2  0  0  0
 11 13  1  0  0  0
 13 14  1  0  0  0
 14 15  2  0  0  0
 14 16  1  0  0  0
 16 17  2  0  0  0
 17 18  1  0  0  0
 18 21  1  0  0  0
 22 21  1  0  0  0
 22 25  1  0  0  0
 25 28  1  0  0  0
 28 31  1  0  0  0
 31 32  1  0  0  0
 28 29  1  0  0  0
 25 26  1  0  0  0
 22 23  1  0  0  0
  9 19  1  0  0  0
  7  2  1  0  0  0
 18  4  1  0  0  0
 17 10  1  0  0  0
 13 20  1  0  0  0
 32 33  1  0  0  0
 29 30  1  0  0  0
 26 27  1  0  0  0
 23 24  1  0  0  0
M  CHG 1   9   1
M  CHG 1  19  -1
M  END
>  <minimizedAffinity>
-8.23532

>  <minimizedRMSD>
1.24593

$$$$
ZINC000011565587 ZINC11565587 PubChem-12304941


 32 34  0  0  0  0  0  0  0  0999 V2000
  -48.9982   -0.7458  -25.5367 C   0  0  0  0  0  0  0  0  0  0  0  0
  -49.1072   -0.6890  -24.0505 C   0  0  0  0  0  0  0  0  0  0  0  0
  -50.0470    0.1725  -23.4801 C   0  0  0  0  0  0  0  0  0  0  0  0
  -50.1836    0.2577  -22.0927 C   0  0  0  0  0  0  0  0  0  0  0  0
  -49.3641   -0.5363  -21.2456 C   0  0  0  0  0  0  0  0  0  0  0  0
  -48.4217   -1.3967  -21.8345 C   0  0  0  0  0  0  0  0  0  0  0  0
  -48.2892   -1.4779  -23.2229 C   0  0  0  0  0  0  0  0  0  0  0  0
  -47.2729   -2.4097  -23.7907 C   0  0  0  0  0  0  0  0  0  0  0  0
  -49.4962   -0.4563  -19.8796 N   0  0  0  0  0  0  0  0  0  0  0  0
  -50.4148    0.3951  -19.3355 C   0  0  0  0  0  0  0  0  0  0  0  0
  -50.5757    0.5141  -17.9913 N   0  0  0  0  0  0  0  0  0  0  0  0
  -51.4982    1.3669  -17.4695 C   0  0  0  0  0  0  0  0  0  0  0  0
  -51.6272    1.4567  -16.2214 O   0  0  0  0  0  0  0  0  0  0  0  0
  -52.2838    2.1246  -18.2851 N   0  0  0  0  0  0  0  0  0  0  0  0
  -52.1863    2.0678  -19.6398 C   0  0  0  0  0  0  0  0  0  0  0  0
  -52.9342    2.7885  -20.3524 O   0  0  0  0  0  0  0  0  0  0  0  0
  -51.2569    1.2107  -20.2247 C   0  0  0  0  0  0  0  0  0  0  0  0
  -51.1038    1.1051  -21.5656 N   0  0  0  0  0  0  0  0  0  0  0  0
  -52.9435    2.7329  -17.8801 H   0  0  0  0  0  0  0  0  0  0  0  0
  -48.6675   -1.2802  -18.9950 C   0  0  0  0  0  0  0  0  0  0  0  0
  -49.3239   -2.6339  -18.7455 C   0  0  0  0  0  0  0  0  0  0  0  0
  -50.7128   -2.4994  -18.6717 O   0  0  0  0  0  0  0  0  0  0  0  0
  -50.9424   -1.9196  -17.9287 H   0  0  0  0  0  0  0  0  0  0  0  0
  -48.7670   -3.2834  -17.4791 C   0  0  0  0  0  0  0  0  0  0  0  0
  -48.9366   -4.6693  -17.5327 O   0  0  0  0  0  0  0  0  0  0  0  0
  -49.8834   -4.8783  -17.5616 H   0  0  0  0  0  0  0  0  0  0  0  0
  -49.3657   -2.7065  -16.1905 C   0  0  0  0  0  0  0  0  0  0  0  0
  -50.2694   -3.6045  -15.6186 O   0  0  0  0  0  0  0  0  0  0  0  0
  -49.8063   -4.4238  -15.3838 H   0  0  0  0  0  0  0  0  0  0  0  0
  -48.2716   -2.3832  -15.1881 C   0  0  0  0  0  0  0  0  0  0  0  0
  -47.4992   -1.3181  -15.6523 O   0  0  0  0  0  0  0  0  0  0  0  0
  -47.0914   -1.5593  -16.4987 H   0  0  0  0  0  0  0  0  0  0  0  0
  1  2  1  0  0  0
  2  3  2  0  0  0
  3  4  1  0  0  0
  4  5  2  0  0  0
  5  6  1  0  0  0
  5  9  1  0  0  0
  6  7  2  0  0  0
  7  8  1  0  0  0
  7  2  1  0  0  0
  9 10  1  0  0  0
  9 20  1  0  0  0
 10 11  2  0  0  0
 10 17  1  0  0  0
 11 12  1  0  0  0
 12 13  2  0  0  0
 12 14  1  0  0  0
 14 15  1  0  0  0
 15 16  2  0  0  0
 15 17  1  0  0  0
 17 18  2  0  0  0
 18  4  1  0  0  0
 21 20  1  0  0  0
 21 24  1  0  0  0
 21 22  1  0  0  0
 24 27  1  0  0  0
 24 25  1  0  0  0
 27 30  1  0  0  0
 27 28  1  0  0  0
 30 31  1  0  0  0
 14 19  1  0  0  0
 31 32  1  0  0  0
 28 29  1  0  0  0
 25 26  1  0  0  0
 22 23  1  0  0  0
M  END
>  <minimizedAffinity>
-8.23194

>  <minimizedRMSD>
0.99094

$$$$
ZINC000015869695 MCULE-2885134168 MolPort-007-958-787


 34 38  0  0  0  0  0  0  0  0999 V2000
  -48.6027   -2.5805  -18.6348 N   0  0  0  0  0  0  0  0  0  0  0  0
  -47.2810   -2.8897  -18.0849 C   0  0  0  0  0  0  0  0  0  0  0  0
  -46.8956   -1.7061  -17.1723 C   0  0  0  0  0  0  0  0  0  0  0  0
  -48.0731   -0.8066  -17.2673 C   0  0  0  0  0  0  0  0  0  0  0  0
  -48.2626    0.4225  -16.6350 C   0  0  0  0  0  0  0  0  0  0  0  0
  -49.4591    1.1167  -16.8758 C   0  0  0  0  0  0  0  0  0  0  0  0
  -50.4313    0.5802  -17.7423 C   0  0  0  0  0  0  0  0  0  0  0  0
  -50.2167   -0.6621  -18.3626 C   0  0  0  0  0  0  0  0  0  0  0  0
  -49.0197   -1.3351  -18.1003 C   0  0  0  0  0  0  0  0  0  0  0  0
  -49.4331   -3.5136  -19.3532 C   0  0  0  0  0  0  0  0  0  0  0  0
  -50.6860   -3.3654  -19.3408 O   0  0  0  0  0  0  0  0  0  0  0  0
  -48.8580   -4.6566  -20.0982 C   0  0  0  0  0  0  0  0  0  0  0  0
  -48.2989   -4.4850  -21.3739 C   0  0  0  0  0  0  0  0  0  0  0  0
  -47.7695   -5.5758  -22.0707 C   0  0  0  0  0  0  0  0  0  0  0  0
  -47.7991   -6.8507  -21.4998 C   0  0  0  0  0  0  0  0  0  0  0  0
  -48.3619   -7.0352  -20.2340 C   0  0  0  0  0  0  0  0  0  0  0  0
  -48.8922   -5.9438  -19.5387 C   0  0  0  0  0  0  0  0  0  0  0  0
  -51.7025    1.3159  -17.9731 C   0  0  0  0  0  0  0  0  0  0  0  0
  -52.4404    0.6925  -19.0604 N   0  0  0  0  0  0  0  0  0  0  0  0
  -53.4281    0.6228  -18.8151 H   0  0  0  0  0  0  0  0  0  0  0  0
  -52.2495    1.6901  -20.4639 S   0  0  0  0  0  0  0  0  0  0  0  0
  -53.6024    2.0354  -21.0180 O   0  0  0  0  0  0  0  0  0  0  0  0
  -51.5420    2.9628  -20.0841 O   0  0  0  0  0  0  0  0  0  0  0  0
  -51.3263    0.8333  -21.6880 C   0  0  0  0  0  0  0  0  0  0  0  0
  -51.7975    0.7748  -23.0219 C   0  0  0  0  0  0  0  0  0  0  0  0
  -51.0608    0.1077  -24.0191 C   0  0  0  0  0  0  0  0  0  0  0  0
  -49.8575   -0.4796  -23.6325 C   0  0  0  0  0  0  0  0  0  0  0  0
  -49.3960   -0.4198  -22.3459 C   0  0  0  0  0  0  0  0  0  0  0  0
  -50.1025    0.2281  -21.3373 C   0  0  0  0  0  0  0  0  0  0  0  0
  -48.2452   -1.0473  -22.2689 O   0  0  0  0  0  0  0  0  0  0  0  0
  -47.9993   -1.4874  -23.4923 C   0  0  0  0  0  0  0  0  0  0  0  0
  -48.9738   -1.1631  -24.3753 N   0  0  0  0  0  0  0  0  0  0  0  0
  -49.0393   -1.4743  -25.7950 C   0  0  0  0  0  0  0  0  0  0  0  0
  -46.9658   -2.1382  -23.8004 O   0  0  0  0  0  0  0  0  0  0  0  0
  1  2  1  0  0  0
  2  3  1  0  0  0
  3  4  1  0  0  0
  4  5  2  0  0  0
  5  6  1  0  0  0
  6  7  2  0  0  0
  7 18  1  0  0  0
 18 19  1  0  0  0
 19 21  1  0  0  0
 21 22  2  0  0  0
 21 23  2  0  0  0
 21 24  1  0  0  0
 24 25  2  0  0  0
 25 26  1  0  0  0
 26 27  2  0  0  0
 27 28  1  0  0  0
 28 29  2  0  0  0
 28 30  1  0  0  0
 30 31  1  0  0  0
 31 32  1  0  0  0
 32 33  1  0  0  0
 31 34  2  0  0  0
  7  8  1  0  0  0
  8  9  2  0  0  0
  1 10  1  0  0  0
 10 12  1  0  0  0
 12 13  2  0  0  0
 13 14  1  0  0  0
 14 15  2  0  0  0
 15 16  1  0  0  0
 16 17  2  0  0  0
 10 11  2  0  0  0
  9  1  1  0  0  0
 17 12  1  0  0  0
  9  4  1  0  0  0
 29 24  1  0  0  0
 32 27  1  0  0  0
 19 20  1  0  0  0
M  END
>  <minimizedAffinity>
-8.22737

>  <minimizedRMSD>
3.00525

$$$$
ZINC000021523792 ZINC21523792


 37 40  0  0  0  0  0  0  0  0999 V2000
  -47.9075   -3.7408  -23.5916 C   0  0  0  0  0  0  0  0  0  0  0  0
  -47.7413   -3.6280  -25.1001 C   0  0  0  0  0  0  0  0  0  0  0  0
  -47.6526   -2.4485  -25.8429 C   0  0  0  0  0  0  0  0  0  0  0  0
  -47.4457   -2.7243  -27.1416 N   0  0  0  0  0  0  0  0  0  0  0  0
  -47.3750   -4.0371  -27.2725 N   0  0  0  0  0  0  0  0  0  0  0  0
  -47.5135   -4.6231  -26.0612 C   0  0  0  0  0  0  0  0  0  0  0  0
  -47.3598   -6.0422  -25.8772 N   0  0  0  0  0  0  0  0  0  0  0  0
  -47.1607   -6.7974  -24.6796 C   0  0  0  0  0  0  0  0  0  0  0  0
  -47.0405   -8.0472  -24.7577 O   0  0  0  0  0  0  0  0  0  0  0  0
  -47.0894   -6.1579  -23.3468 C   0  0  0  0  0  0  0  0  0  0  0  0
  -48.6486   -5.3085  -23.0530 S   0  0  0  0  0  0  0  0  0  0  0  0
  -47.7003   -1.0504  -25.3288 C   0  0  0  0  0  0  0  0  0  0  0  0
  -47.3976   -6.5755  -26.7039 H   0  0  0  0  0  0  0  0  0  0  0  0
  -47.1411   -4.6775  -28.5379 C   0  0  0  0  0  0  0  0  0  0  0  0
  -46.7898   -3.9287  -29.6192 N   0  0  0  0  0  0  0  0  0  0  0  0
  -46.5681   -4.5040  -30.8297 C   0  0  0  0  0  0  0  0  0  0  0  0
  -46.7018   -5.8825  -30.9810 C   0  0  0  0  0  0  0  0  0  0  0  0
  -47.0631   -6.6371  -29.8670 C   0  0  0  0  0  0  0  0  0  0  0  0
  -47.2764   -6.0256  -28.6731 N   0  0  0  0  0  0  0  0  0  0  0  0
  -47.2168   -8.1104  -29.9849 C   0  0  0  0  0  0  0  0  0  0  0  0
  -46.1869   -3.6624  -31.9935 C   0  0  0  0  0  0  0  0  0  0  0  0
  -48.7217   -0.6395  -21.5579 C   0  0  0  0  0  0  0  0  0  0  0  0
  -48.0324   -1.7038  -22.1500 C   0  0  0  0  0  0  0  0  0  0  0  0
  -48.6870   -2.6139  -22.9827 C   0  0  0  0  0  0  0  0  0  0  0  0
  -50.0581   -2.4688  -23.2222 C   0  0  0  0  0  0  0  0  0  0  0  0
  -50.7602   -1.4145  -22.6400 C   0  0  0  0  0  0  0  0  0  0  0  0
  -50.1087   -0.4880  -21.8088 C   0  0  0  0  0  0  0  0  0  0  0  0
  -47.9778    0.2268  -20.7426 O   0  0  0  0  0  0  0  0  0  0  0  0
  -48.6402    0.2172  -18.4386 C   0  0  0  0  0  0  0  0  0  0  0  0
  -47.5328   -0.0769  -19.4282 C   0  0  0  0  0  0  0  0  0  0  0  0
  -50.8275    0.5676  -21.2321 O   0  0  0  0  0  0  0  0  0  0  0  0
  -51.8910    0.3820  -20.3030 C   0  0  0  0  0  0  0  0  0  0  0  0
  -52.5685    1.6806  -20.0293 C   0  0  0  0  0  0  0  0  0  0  0  0
  -53.3252    2.1906  -20.8954 O   0  0  0  0  0  0  0  0  0  0  0  0
  -52.3414    2.3563  -18.7984 N   0  0  0  0  0  0  0  0  0  0  0  0
  -51.7494    1.9579  -18.1201 H   0  0  0  0  0  0  0  0  0  0  0  0
  -52.7762    3.2224  -18.6247 H   0  0  0  0  0  0  0  0  0  0  0  0
 29 30  1  0  0  0
 30 28  1  0  0  0
 28 22  1  0  0  0
 22 23  2  0  0  0
 23 24  1  0  0  0
 24 25  2  0  0  0
 25 26  1  0  0  0
 26 27  2  0  0  0
 27 31  1  0  0  0
 27 22  1  0  0  0
 31 32  1  0  0  0
 32 33  1  0  0  0
 33 34  2  0  0  0
 33 35  1  0  0  0
  1 24  1  0  0  0
  1  2  1  0  0  0
  2  3  1  0  0  0
  3  4  2  0  0  0
  3 12  1  0  0  0
  4  5  1  0  0  0
  5  6  1  0  0  0
  5 14  1  0  0  0
  6  7  1  0  0  0
  6  2  2  0  0  0
  7  8  1  0  0  0
  8  9  2  0  0  0
  8 10  1  0  0  0
 10 11  1  0  0  0
 11  1  1  0  0  0
 14 15  2  0  0  0
 15 16  1  0  0  0
 16 17  2  0  0  0
 16 21  1  0  0  0
 17 18  1  0  0  0
 18 19  2  0  0  0
 18 20  1  0  0  0
 19 14  1  0  0  0
 35 36  1  0  0  0
 35 37  1  0  0  0
  7 13  1  0  0  0
M  END
>  <minimizedAffinity>
-8.21484

>  <minimizedRMSD>
3.27573

$$$$
ZINC000005372514 ZINC05372514 PubChem-92261926


 32 34  0  0  0  0  0  0  0  0999 V2000
  -48.9966   -0.6738  -25.6457 C   0  0  0  0  0  0  0  0  0  0  0  0
  -49.1273   -0.6334  -24.1607 C   0  0  0  0  0  0  0  0  0  0  0  0
  -50.0569    0.2403  -23.5929 C   0  0  0  0  0  0  0  0  0  0  0  0
  -50.2124    0.3097  -22.2065 C   0  0  0  0  0  0  0  0  0  0  0  0
  -51.1433    1.1950  -21.6736 C   0  0  0  0  0  0  0  0  0  0  0  0
  -51.3062    1.2812  -20.2962 C   0  0  0  0  0  0  0  0  0  0  0  0
  -52.2214    2.1572  -19.7005 C   0  0  0  0  0  0  0  0  0  0  0  0
  -52.9476    2.9081  -20.4056 O   0  0  0  0  0  0  0  0  0  0  0  0
  -52.3297    2.2018  -18.3455 N   0  0  0  0  0  0  0  0  0  0  0  0
  -51.5780    1.4227  -17.5204 C   0  0  0  0  0  0  0  0  0  0  0  0
  -51.7242    1.5121  -16.2743 O   0  0  0  0  0  0  0  0  0  0  0  0
  -50.6455    0.5239  -18.0420 C   0  0  0  0  0  0  0  0  0  0  0  0
  -50.4766    0.4155  -19.4275 C   0  0  0  0  0  0  0  0  0  0  0  0
  -49.5760   -0.4529  -19.9888 N   0  0  0  0  0  0  0  0  0  0  0  0
  -49.4275   -0.5112  -21.3558 C   0  0  0  0  0  0  0  0  0  0  0  0
  -48.4928   -1.3815  -21.9445 C   0  0  0  0  0  0  0  0  0  0  0  0
  -48.3390   -1.4486  -23.3310 C   0  0  0  0  0  0  0  0  0  0  0  0
  -47.3326   -2.3944  -23.8936 C   0  0  0  0  0  0  0  0  0  0  0  0
  -52.9790    2.8238  -17.9445 H   0  0  0  0  0  0  0  0  0  0  0  0
  -48.7724   -1.3263  -19.1241 C   0  0  0  0  0  0  0  0  0  0  0  0
  -49.4191   -2.7056  -18.9941 C   0  0  0  0  0  0  0  0  0  0  0  0
  -50.0230   -2.8329  -17.7428 O   0  0  0  0  0  0  0  0  0  0  0  0
  -49.3486   -2.7600  -17.0494 H   0  0  0  0  0  0  0  0  0  0  0  0
  -48.4094   -3.8414  -19.1912 C   0  0  0  0  0  0  0  0  0  0  0  0
  -47.1029   -3.3518  -19.2658 O   0  0  0  0  0  0  0  0  0  0  0  0
  -47.0111   -2.7941  -20.0541 H   0  0  0  0  0  0  0  0  0  0  0  0
  -48.7089   -4.7493  -20.3884 C   0  0  0  0  0  0  0  0  0  0  0  0
  -50.0131   -4.5824  -20.8606 O   0  0  0  0  0  0  0  0  0  0  0  0
  -50.6427   -4.8544  -20.1746 H   0  0  0  0  0  0  0  0  0  0  0  0
  -48.4145   -6.2172  -20.0994 C   0  0  0  0  0  0  0  0  0  0  0  0
  -49.5800   -6.9048  -19.7564 O   0  0  0  0  0  0  0  0  0  0  0  0
  -49.9636   -6.5121  -18.9567 H   0  0  0  0  0  0  0  0  0  0  0  0
  1  2  1  0  0  0
  2  3  2  0  0  0
  3  4  1  0  0  0
  4  5  1  0  0  0
  5  6  2  0  0  0
  6  7  1  0  0  0
  6 13  1  0  0  0
  7  8  2  0  0  0
  7  9  1  0  0  0
  9 10  1  0  0  0
 10 11  2  0  0  0
 10 12  1  0  0  0
 12 13  2  0  0  0
 13 14  1  0  0  0
 14 15  1  0  0  0
 14 20  1  0  0  0
 15 16  1  0  0  0
 15  4  2  0  0  0
 16 17  2  0  0  0
 17 18  1  0  0  0
 17  2  1  0  0  0
 21 20  1  0  0  0
 21 24  1  0  0  0
 21 22  1  0  0  0
 24 27  1  0  0  0
 24 25  1  0  0  0
 27 30  1  0  0  0
 27 28  1  0  0  0
 30 31  1  0  0  0
  9 19  1  0  0  0
 31 32  1  0  0  0
 28 29  1  0  0  0
 25 26  1  0  0  0
 22 23  1  0  0  0
M  END
>  <minimizedAffinity>
-8.21443

>  <minimizedRMSD>
1.53773

$$$$
ZINC000009405320 ZINC09405320 ChemDiv-E196-0337 MCULE-8548667416 MolPort-007-724-099 PubChem-22518545


 35 39  0  0  0  0  0  0  0  0999 V2000
  -50.4962    0.0720  -22.5222 C   0  0  0  0  0  0  0  0  0  0  0  0
  -51.2779   -0.5342  -23.4552 N   0  0  0  0  0  0  0  0  0  0  0  0
  -50.9014   -1.6982  -24.0358 C   0  0  0  0  0  0  0  0  0  0  0  0
  -51.6941   -2.2953  -24.9638 N   0  0  0  0  0  0  0  0  0  0  0  0
  -51.3247   -3.4656  -25.5500 C   0  0  0  0  0  0  0  0  0  0  0  0
  -50.1121   -4.0633  -25.1938 C   0  0  0  0  0  0  0  0  0  0  0  0
  -49.3171   -3.4666  -24.2658 N   0  0  0  0  0  0  0  0  0  0  0  0
  -49.6861   -2.2962  -23.6776 C   0  0  0  0  0  0  0  0  0  0  0  0
  -48.8830   -1.6640  -22.7251 C   0  0  0  0  0  0  0  0  0  0  0  0
  -47.7797   -2.1823  -22.3952 O   0  0  0  0  0  0  0  0  0  0  0  0
  -49.2945   -0.4859  -22.1588 N   0  0  0  0  0  0  0  0  0  0  0  0
  -51.0868    1.6026  -21.7893 S   0  0  0  0  0  0  0  0  0  0  0  0
  -51.9761    0.7091  -20.4804 C   0  0  0  0  0  0  0  0  0  0  0  0
  -51.2169    1.1770  -18.1270 N   0  0  0  0  0  0  0  0  0  0  0  0
  -52.0334    1.5369  -19.2477 C   0  0  0  0  0  0  0  0  0  0  0  0
  -52.7802    2.5506  -19.2151 O   0  0  0  0  0  0  0  0  0  0  0  0
  -50.6428    0.3848  -18.2368 H   0  0  0  0  0  0  0  0  0  0  0  0
  -50.8852    3.7259  -13.0018 C   0  0  0  0  0  0  0  0  0  0  0  0
  -50.9860    3.0976  -14.3507 C   0  0  0  0  0  0  0  0  0  0  0  0
  -50.6024    1.7617  -14.5005 C   0  0  0  0  0  0  0  0  0  0  0  0
  -50.6836    1.1413  -15.7497 C   0  0  0  0  0  0  0  0  0  0  0  0
  -51.1475    1.8488  -16.8627 C   0  0  0  0  0  0  0  0  0  0  0  0
  -51.5322    3.1889  -16.7121 C   0  0  0  0  0  0  0  0  0  0  0  0
  -51.4550    3.8169  -15.4652 C   0  0  0  0  0  0  0  0  0  0  0  0
  -51.8736    5.2438  -15.3538 C   0  0  0  0  0  0  0  0  0  0  0  0
  -48.4216    0.1815  -21.1878 C   0  0  0  0  0  0  0  0  0  0  0  0
  -48.5463   -0.4125  -19.8189 C   0  0  0  0  0  0  0  0  0  0  0  0
  -47.8050    0.1581  -18.7604 C   0  0  0  0  0  0  0  0  0  0  0  0
  -47.8652   -0.3879  -17.4657 C   0  0  0  0  0  0  0  0  0  0  0  0
  -48.6748   -1.5041  -17.2771 C   0  0  0  0  0  0  0  0  0  0  0  0
  -48.9035   -2.2118  -16.1140 O   0  0  0  0  0  0  0  0  0  0  0  0
  -49.8065   -3.2847  -16.4172 C   0  0  0  0  0  0  0  0  0  0  0  0
  -50.0816   -3.1543  -17.8194 O   0  0  0  0  0  0  0  0  0  0  0  0
  -49.3779   -2.0652  -18.2934 C   0  0  0  0  0  0  0  0  0  0  0  0
  -49.3376   -1.5578  -19.5892 C   0  0  0  0  0  0  0  0  0  0  0  0
 18 19  1  0  0  0
 19 20  2  0  0  0
 20 21  1  0  0  0
 21 22  2  0  0  0
 22 14  1  0  0  0
 22 23  1  0  0  0
 14 15  1  0  0  0
 15 16  2  0  0  0
 15 13  1  0  0  0
 13 12  1  0  0  0
 12  1  1  0  0  0
  1  2  2  0  0  0
  2  3  1  0  0  0
  3  4  2  0  0  0
  4  5  1  0  0  0
  5  6  2  0  0  0
  6  7  1  0  0  0
  7  8  2  0  0  0
  8  9  1  0  0  0
  8  3  1  0  0  0
  9 10  2  0  0  0
  9 11  1  0  0  0
 11 26  1  0  0  0
 11  1  1  0  0  0
 26 27  1  0  0  0
 27 28  2  0  0  0
 28 29  1  0  0  0
 29 30  2  0  0  0
 30 31  1  0  0  0
 31 32  1  0  0  0
 32 33  1  0  0  0
 33 34  1  0  0  0
 34 35  2  0  0  0
 34 30  1  0  0  0
 35 27  1  0  0  0
 23 24  2  0  0  0
 24 25  1  0  0  0
 24 19  1  0  0  0
 14 17  1  0  0  0
M  END
>  <minimizedAffinity>
-8.21354

>  <minimizedRMSD>
2.22455

$$$$
ZINC000004878449 PubChem-12923698


 32 34  0  0  0  0  0  0  0  0999 V2000
  -48.9741   -0.7168  -25.6737 C   0  0  0  0  0  0  0  0  0  0  0  0
  -49.1002   -0.6605  -24.1888 C   0  0  0  0  0  0  0  0  0  0  0  0
  -48.2967   -1.4544  -23.3521 C   0  0  0  0  0  0  0  0  0  0  0  0
  -48.4455   -1.3730  -21.9656 C   0  0  0  0  0  0  0  0  0  0  0  0
  -49.3901   -0.5080  -21.3849 C   0  0  0  0  0  0  0  0  0  0  0  0
  -50.1932    0.2894  -22.2425 C   0  0  0  0  0  0  0  0  0  0  0  0
  -50.0416    0.2053  -23.6283 C   0  0  0  0  0  0  0  0  0  0  0  0
  -51.1398    1.1634  -21.7153 C   0  0  0  0  0  0  0  0  0  0  0  0
  -51.2971    1.2558  -20.3377 C   0  0  0  0  0  0  0  0  0  0  0  0
  -52.2203    2.1070  -19.7278 C   0  0  0  0  0  0  0  0  0  0  0  0
  -52.9718    2.8465  -20.4182 O   0  0  0  0  0  0  0  0  0  0  0  0
  -52.3086    2.1382  -18.3720 N   0  0  0  0  0  0  0  0  0  0  0  0
  -51.5222    1.3626  -17.5761 C   0  0  0  0  0  0  0  0  0  0  0  0
  -51.6432    1.4295  -16.3258 O   0  0  0  0  0  0  0  0  0  0  0  0
  -50.6076    0.5161  -18.1192 N   0  0  0  0  0  0  0  0  0  0  0  0
  -50.4515    0.4179  -19.4660 C   0  0  0  0  0  0  0  0  0  0  0  0
  -49.5344   -0.4333  -20.0186 N   0  0  0  0  0  0  0  0  0  0  0  0
  -47.2792   -2.3919  -23.9083 C   0  0  0  0  0  0  0  0  0  0  0  0
  -52.9630    2.7417  -17.9514 H   0  0  0  0  0  0  0  0  0  0  0  0
  -48.7148   -1.2697  -19.1359 C   0  0  0  0  0  0  0  0  0  0  0  0
  -49.3882   -2.6132  -18.8917 C   0  0  0  0  0  0  0  0  0  0  0  0
  -50.2787   -2.5156  -17.8193 O   0  0  0  0  0  0  0  0  0  0  0  0
  -49.7939   -2.2615  -17.0185 H   0  0  0  0  0  0  0  0  0  0  0  0
  -48.3293   -3.6855  -18.6267 C   0  0  0  0  0  0  0  0  0  0  0  0
  -48.6075   -4.3955  -17.4550 O   0  0  0  0  0  0  0  0  0  0  0  0
  -49.4430   -4.8771  -17.5594 H   0  0  0  0  0  0  0  0  0  0  0  0
  -48.1226   -4.6407  -19.8045 C   0  0  0  0  0  0  0  0  0  0  0  0
  -47.0355   -4.2255  -20.5765 O   0  0  0  0  0  0  0  0  0  0  0  0
  -47.2189   -3.3485  -20.9481 H   0  0  0  0  0  0  0  0  0  0  0  0
  -49.3652   -4.7724  -20.6745 C   0  0  0  0  0  0  0  0  0  0  0  0
  -49.7314   -6.1143  -20.7782 O   0  0  0  0  0  0  0  0  0  0  0  0
  -49.0065   -6.6170  -21.1815 H   0  0  0  0  0  0  0  0  0  0  0  0
  1  2  1  0  0  0
  2  3  2  0  0  0
  3  4  1  0  0  0
  4  5  2  0  0  0
  5  6  1  0  0  0
  6  7  2  0  0  0
  6  8  1  0  0  0
  8  9  2  0  0  0
  9 10  1  0  0  0
 10 11  2  0  0  0
 10 12  1  0  0  0
 12 13  1  0  0  0
 13 14  2  0  0  0
 13 15  1  0  0  0
 15 16  2  0  0  0
 16 17  1  0  0  0
 17 20  1  0  0  0
 21 20  1  0  0  0
 21 24  1  0  0  0
 24 27  1  0  0  0
 27 30  1  0  0  0
 30 31  1  0  0  0
 27 28  1  0  0  0
 24 25  1  0  0  0
 21 22  1  0  0  0
  3 18  1  0  0  0
  7  2  1  0  0  0
 17  5  1  0  0  0
 16  9  1  0  0  0
 12 19  1  0  0  0
 31 32  1  0  0  0
 28 29  1  0  0  0
 25 26  1  0  0  0
 22 23  1  0  0  0
M  END
>  <minimizedAffinity>
-8.21067

>  <minimizedRMSD>
1.35661

$$$$
ZINC000003831424 ZINC03831424 PubChem-6328150


 32 34  0  0  0  0  0  0  0  0999 V2000
  -49.2676   -0.7822  -25.7420 C   0  0  0  0  0  0  0  0  0  0  0  0
  -49.2884   -0.6120  -24.2605 C   0  0  0  0  0  0  0  0  0  0  0  0
  -50.2954    0.1688  -23.6896 C   0  0  0  0  0  0  0  0  0  0  0  0
  -50.3541    0.3535  -22.3063 C   0  0  0  0  0  0  0  0  0  0  0  0
  -49.3900   -0.2616  -21.4620 C   0  0  0  0  0  0  0  0  0  0  0  0
  -48.3757   -1.0324  -22.0543 C   0  0  0  0  0  0  0  0  0  0  0  0
  -48.3197   -1.2124  -23.4382 C   0  0  0  0  0  0  0  0  0  0  0  0
  -47.2234   -2.0486  -24.0062 C   0  0  0  0  0  0  0  0  0  0  0  0
  -49.4491   -0.0892  -20.0986 N   0  0  0  0  0  0  0  0  0  0  0  0
  -50.4114    0.7199  -19.5618 C   0  0  0  0  0  0  0  0  0  0  0  0
  -50.4792    0.9676  -18.2271 N   0  0  0  0  0  0  0  0  0  0  0  0
  -51.4483    1.7707  -17.7111 C   0  0  0  0  0  0  0  0  0  0  0  0
  -51.4886    1.9801  -16.4714 O   0  0  0  0  0  0  0  0  0  0  0  0
  -52.3759    2.3498  -18.5235 N   0  0  0  0  0  0  0  0  0  0  0  0
  -52.3766    2.1605  -19.8696 C   0  0  0  0  0  0  0  0  0  0  0  0
  -53.2525    2.7210  -20.5804 O   0  0  0  0  0  0  0  0  0  0  0  0
  -51.4029    1.3495  -20.4482 C   0  0  0  0  0  0  0  0  0  0  0  0
  -51.3322    1.1345  -21.7824 N   0  0  0  0  0  0  0  0  0  0  0  0
  -53.0681    2.9238  -18.1228 H   0  0  0  0  0  0  0  0  0  0  0  0
  -48.4746   -0.7408  -19.2107 C   0  0  0  0  0  0  0  0  0  0  0  0
  -49.0529   -1.9795  -18.5118 C   0  0  0  0  0  0  0  0  0  0  0  0
  -50.3762   -2.1952  -18.9053 O   0  0  0  0  0  0  0  0  0  0  0  0
  -50.4053   -2.3718  -19.8587 H   0  0  0  0  0  0  0  0  0  0  0  0
  -48.2037   -3.2280  -18.7515 C   0  0  0  0  0  0  0  0  0  0  0  0
  -46.9727   -3.0985  -18.1007 O   0  0  0  0  0  0  0  0  0  0  0  0
  -47.1193   -3.0145  -17.1455 H   0  0  0  0  0  0  0  0  0  0  0  0
  -48.9183   -4.4921  -18.2756 C   0  0  0  0  0  0  0  0  0  0  0  0
  -49.5152   -4.2810  -17.0297 O   0  0  0  0  0  0  0  0  0  0  0  0
  -48.8321   -4.0613  -16.3770 H   0  0  0  0  0  0  0  0  0  0  0  0
  -47.9395   -5.6503  -18.1946 C   0  0  0  0  0  0  0  0  0  0  0  0
  -48.5616   -6.7572  -17.6174 O   0  0  0  0  0  0  0  0  0  0  0  0
  -48.8602   -6.5303  -16.7229 H   0  0  0  0  0  0  0  0  0  0  0  0
  1  2  1  0  0  0
  2  3  2  0  0  0
  3  4  1  0  0  0
  4  5  2  0  0  0
  5  6  1  0  0  0
  5  9  1  0  0  0
  6  7  2  0  0  0
  7  8  1  0  0  0
  7  2  1  0  0  0
  9 10  1  0  0  0
  9 20  1  0  0  0
 10 11  2  0  0  0
 10 17  1  0  0  0
 11 12  1  0  0  0
 12 13  2  0  0  0
 12 14  1  0  0  0
 14 15  1  0  0  0
 15 16  2  0  0  0
 15 17  1  0  0  0
 17 18  2  0  0  0
 18  4  1  0  0  0
 21 20  1  0  0  0
 21 24  1  0  0  0
 21 22  1  0  0  0
 24 27  1  0  0  0
 24 25  1  0  0  0
 27 30  1  0  0  0
 27 28  1  0  0  0
 30 31  1  0  0  0
 14 19  1  0  0  0
 31 32  1  0  0  0
 28 29  1  0  0  0
 25 26  1  0  0  0
 22 23  1  0  0  0
M  END
>  <minimizedAffinity>
-8.20978

>  <minimizedRMSD>
1.02573

$$$$
ZINC000004878453 PubChem-92237773


 32 34  0  0  0  0  0  0  0  0999 V2000
  -49.1816   -0.5357  -25.9103 C   0  0  0  0  0  0  0  0  0  0  0  0
  -49.2370   -0.4949  -24.4206 C   0  0  0  0  0  0  0  0  0  0  0  0
  -48.3355   -1.2288  -23.6310 C   0  0  0  0  0  0  0  0  0  0  0  0
  -48.4213   -1.1652  -22.2383 C   0  0  0  0  0  0  0  0  0  0  0  0
  -49.3984   -0.3773  -21.6043 C   0  0  0  0  0  0  0  0  0  0  0  0
  -50.2985    0.3631  -22.4154 C   0  0  0  0  0  0  0  0  0  0  0  0
  -50.2107    0.2961  -23.8076 C   0  0  0  0  0  0  0  0  0  0  0  0
  -51.2775    1.1653  -21.8363 C   0  0  0  0  0  0  0  0  0  0  0  0
  -51.3691    1.2452  -20.4523 C   0  0  0  0  0  0  0  0  0  0  0  0
  -52.3192    2.0265  -19.7921 C   0  0  0  0  0  0  0  0  0  0  0  0
  -53.1573    2.7094  -20.4397 O   0  0  0  0  0  0  0  0  0  0  0  0
  -52.3394    2.0506  -18.4336 N   0  0  0  0  0  0  0  0  0  0  0  0
  -51.4586    1.3340  -17.6827 C   0  0  0  0  0  0  0  0  0  0  0  0
  -51.5193    1.3910  -16.4275 O   0  0  0  0  0  0  0  0  0  0  0  0
  -50.5147    0.5563  -18.2759 N   0  0  0  0  0  0  0  0  0  0  0  0
  -50.4214    0.4702  -19.6294 C   0  0  0  0  0  0  0  0  0  0  0  0
  -49.4846   -0.3245  -20.2313 N   0  0  0  0  0  0  0  0  0  0  0  0
  -47.2792   -2.0846  -24.2440 C   0  0  0  0  0  0  0  0  0  0  0  0
  -53.0133    2.6046  -17.9773 H   0  0  0  0  0  0  0  0  0  0  0  0
  -48.5717   -1.1064  -19.3888 C   0  0  0  0  0  0  0  0  0  0  0  0
  -48.3792   -2.5259  -19.9304 C   0  0  0  0  0  0  0  0  0  0  0  0
  -47.2144   -3.0690  -19.3899 O   0  0  0  0  0  0  0  0  0  0  0  0
  -47.3044   -3.1330  -18.4262 H   0  0  0  0  0  0  0  0  0  0  0  0
  -49.5586   -3.4620  -19.6418 C   0  0  0  0  0  0  0  0  0  0  0  0
  -50.5613   -2.7901  -18.9366 O   0  0  0  0  0  0  0  0  0  0  0  0
  -50.9092   -2.0660  -19.4802 H   0  0  0  0  0  0  0  0  0  0  0  0
  -50.1266   -4.1014  -20.9104 C   0  0  0  0  0  0  0  0  0  0  0  0
  -51.4220   -4.5690  -20.6802 O   0  0  0  0  0  0  0  0  0  0  0  0
  -51.4011   -5.2551  -19.9948 H   0  0  0  0  0  0  0  0  0  0  0  0
  -49.2488   -5.2426  -21.4131 C   0  0  0  0  0  0  0  0  0  0  0  0
  -49.4548   -6.3947  -20.6513 O   0  0  0  0  0  0  0  0  0  0  0  0
  -49.2252   -6.2159  -19.7260 H   0  0  0  0  0  0  0  0  0  0  0  0
  1  2  1  0  0  0
  2  3  2  0  0  0
  3  4  1  0  0  0
  4  5  2  0  0  0
  5  6  1  0  0  0
  6  7  2  0  0  0
  6  8  1  0  0  0
  8  9  2  0  0  0
  9 10  1  0  0  0
 10 11  2  0  0  0
 10 12  1  0  0  0
 12 13  1  0  0  0
 13 14  2  0  0  0
 13 15  1  0  0  0
 15 16  2  0  0  0
 16 17  1  0  0  0
 17 20  1  0  0  0
 21 20  1  0  0  0
 21 24  1  0  0  0
 24 27  1  0  0  0
 27 30  1  0  0  0
 30 31  1  0  0  0
 27 28  1  0  0  0
 24 25  1  0  0  0
 21 22  1  0  0  0
  3 18  1  0  0  0
  7  2  1  0  0  0
 17  5  1  0  0  0
 16  9  1  0  0  0
 12 19  1  0  0  0
 31 32  1  0  0  0
 28 29  1  0  0  0
 25 26  1  0  0  0
 22 23  1  0  0  0
M  END
>  <minimizedAffinity>
-8.20774

>  <minimizedRMSD>
1.13522

$$$$
ZINC000023126404 MCULE-3872663354


 37 41  0  0  0  0  0  0  0  0999 V2000
  -47.9801   -1.4430  -22.9049 C   0  0  0  0  0  0  0  0  0  0  0  0
  -46.9181   -2.2383  -22.6732 N   0  0  0  0  0  0  0  0  0  0  0  0
  -46.7678   -2.2753  -21.3532 N   0  0  0  0  0  0  0  0  0  0  0  0
  -47.7395   -1.5076  -20.8124 C   0  0  0  0  0  0  0  0  0  0  0  0
  -48.5195   -0.9719  -21.7739 N   0  0  0  0  0  0  0  0  0  0  0  0
  -49.6056   -0.1539  -21.7665 C   0  0  0  0  0  0  0  0  0  0  0  0
  -50.1590    0.2171  -23.0142 C   0  0  0  0  0  0  0  0  0  0  0  0
  -51.2770    1.0612  -23.0492 C   0  0  0  0  0  0  0  0  0  0  0  0
  -51.8471    1.5218  -21.8592 C   0  0  0  0  0  0  0  0  0  0  0  0
  -51.3118    1.1445  -20.6190 C   0  0  0  0  0  0  0  0  0  0  0  0
  -50.1889    0.3084  -20.5809 C   0  0  0  0  0  0  0  0  0  0  0  0
  -49.5676   -0.2826  -24.1993 C   0  0  0  0  0  0  0  0  0  0  0  0
  -50.0459    0.0382  -25.3235 O   0  0  0  0  0  0  0  0  0  0  0  0
  -48.4797   -1.1166  -24.1279 N   0  0  0  0  0  0  0  0  0  0  0  0
  -47.8600   -1.6442  -25.3376 C   0  0  0  0  0  0  0  0  0  0  0  0
  -51.9309    1.6109  -19.3667 C   0  0  0  0  0  0  0  0  0  0  0  0
  -53.0022    2.2766  -19.4016 O   0  0  0  0  0  0  0  0  0  0  0  0
  -51.3276    1.2928  -18.1083 N   0  0  0  0  0  0  0  0  0  0  0  0
  -50.5083    0.7470  -18.1000 H   0  0  0  0  0  0  0  0  0  0  0  0
  -51.8801    1.7460  -16.8412 C   0  0  0  0  0  0  0  0  0  0  0  0
  -51.9169    3.2656  -16.8019 C   0  0  0  0  0  0  0  0  0  0  0  0
  -50.9346    3.6944  -15.7324 C   0  0  0  0  0  0  0  0  0  0  0  0
  -50.7985    2.5040  -14.8147 C   0  0  0  0  0  0  0  0  0  0  0  0
  -50.9794    1.2979  -15.7073 C   0  0  0  0  0  0  0  0  0  0  0  0
  -47.8873   -1.2120  -19.0506 S   0  0  0  0  0  0  0  0  0  0  0  0
  -48.9175   -2.6937  -18.8024 C   0  0  0  0  0  0  0  0  0  0  0  0
  -49.2597   -2.9236  -17.3633 C   0  0  0  0  0  0  0  0  0  0  0  0
  -49.7799   -4.0230  -17.0390 O   0  0  0  0  0  0  0  0  0  0  0  0
  -48.9830   -1.9221  -16.3721 N   0  0  0  0  0  0  0  0  0  0  0  0
  -48.5083   -1.1166  -16.6804 H   0  0  0  0  0  0  0  0  0  0  0  0
  -49.3253   -1.9719  -14.9808 C   0  0  0  0  0  0  0  0  0  0  0  0
  -48.6571   -1.1210  -14.0930 C   0  0  0  0  0  0  0  0  0  0  0  0
  -48.9802   -1.1230  -12.7326 C   0  0  0  0  0  0  0  0  0  0  0  0
  -49.9783   -1.9754  -12.2532 C   0  0  0  0  0  0  0  0  0  0  0  0
  -50.6521   -2.8268  -13.1328 C   0  0  0  0  0  0  0  0  0  0  0  0
  -50.3271   -2.8248  -14.4924 C   0  0  0  0  0  0  0  0  0  0  0  0
  -50.2948   -1.9741  -10.9363 F   0  0  0  0  0  0  0  0  0  0  0  0
  1  2  2  0  0  0
  2  3  1  0  0  0
  3  4  2  0  0  0
  4 25  1  0  0  0
 25 26  1  0  0  0
 26 27  1  0  0  0
 27 28  2  0  0  0
 27 29  1  0  0  0
 29 31  1  0  0  0
 31 32  2  0  0  0
 32 33  1  0  0  0
 33 34  2  0  0  0
 34 35  1  0  0  0
 35 36  2  0  0  0
 34 37  1  0  0  0
  4  5  1  0  0  0
  5  6  1  0  0  0
  6  7  2  0  0  0
  7  8  1  0  0  0
  8  9  2  0  0  0
  9 10  1  0  0  0
 10 11  2  0  0  0
 10 16  1  0  0  0
 16 17  2  0  0  0
 16 18  1  0  0  0
 18 20  1  0  0  0
 20 21  1  0  0  0
 21 22  1  0  0  0
 22 23  1  0  0  0
 23 24  1  0  0  0
  7 12  1  0  0  0
 12 13  2  0  0  0
 12 14  1  0  0  0
 14 15  1  0  0  0
  5  1  1  0  0  0
 11  6  1  0  0  0
 24 20  1  0  0  0
 14  1  1  0  0  0
 36 31  1  0  0  0
 29 30  1  0  0  0
 18 19  1  0  0  0
M  END
>  <minimizedAffinity>
-8.20652

>  <minimizedRMSD>
1.16855

$$$$
ZINC000031809732


 33 37  0  0  0  0  0  0  0  0999 V2000
  -48.3741   -3.2633  -22.1765 C   0  0  0  0  0  0  0  0  0  0  0  0
  -49.1511   -4.5897  -21.2130 S   0  0  0  0  0  0  0  0  0  0  0  0
  -48.5779   -3.7975  -19.7005 C   0  0  0  0  0  0  0  0  0  0  0  0
  -49.6681   -2.9509  -19.1606 C   0  0  0  0  0  0  0  0  0  0  0  0
  -50.0996   -3.1931  -18.0041 O   0  0  0  0  0  0  0  0  0  0  0  0
  -50.2385   -1.8658  -19.8987 N   0  0  0  0  0  0  0  0  0  0  0  0
  -49.9716   -1.3979  -21.2333 C   0  0  0  0  0  0  0  0  0  0  0  0
  -49.2377   -2.0162  -22.2531 C   0  0  0  0  0  0  0  0  0  0  0  0
  -49.3832   -1.1323  -23.3277 C   0  0  0  0  0  0  0  0  0  0  0  0
  -48.7426   -1.2141  -24.6702 C   0  0  0  0  0  0  0  0  0  0  0  0
  -50.1738   -0.1014  -22.9821 N   0  0  0  0  0  0  0  0  0  0  0  0
  -50.5206   -0.2626  -21.7180 N   0  0  0  0  0  0  0  0  0  0  0  0
  -50.9266   -1.3553  -19.4137 H   0  0  0  0  0  0  0  0  0  0  0  0
  -51.3858    0.6548  -21.0329 C   0  0  0  0  0  0  0  0  0  0  0  0
  -52.3984    1.2759  -21.7097 N   0  0  0  0  0  0  0  0  0  0  0  0
  -53.2243    2.1800  -21.0928 C   0  0  0  0  0  0  0  0  0  0  0  0
  -53.0442    2.4976  -19.7758 N   0  0  0  0  0  0  0  0  0  0  0  0
  -52.0327    1.8943  -19.1072 C   0  0  0  0  0  0  0  0  0  0  0  0
  -51.6684    2.1186  -17.8392 N   0  0  0  0  0  0  0  0  0  0  0  0
  -50.5787    1.3149  -17.7004 C   0  0  0  0  0  0  0  0  0  0  0  0
  -50.2611    0.6174  -18.8255 N   0  0  0  0  0  0  0  0  0  0  0  0
  -51.2087    0.9999  -19.6926 C   0  0  0  0  0  0  0  0  0  0  0  0
  -52.0837    2.7144  -17.1746 H   0  0  0  0  0  0  0  0  0  0  0  0
  -47.6920   -5.6522  -25.0764 C   0  0  0  0  0  0  0  0  0  0  0  0
  -48.1184   -5.1573  -23.8334 C   0  0  0  0  0  0  0  0  0  0  0  0
  -47.9251   -3.8085  -23.4991 C   0  0  0  0  0  0  0  0  0  0  0  0
  -47.2976   -2.9546  -24.4107 C   0  0  0  0  0  0  0  0  0  0  0  0
  -46.8704   -3.4407  -25.6487 C   0  0  0  0  0  0  0  0  0  0  0  0
  -47.0666   -4.7840  -25.9828 C   0  0  0  0  0  0  0  0  0  0  0  0
  -46.6373   -5.2519  -27.2184 O   0  0  0  0  0  0  0  0  0  0  0  0
  -46.2199   -4.6684  -27.8210 H   0  0  0  0  0  0  0  0  0  0  0  0
  -47.8508   -8.0482  -24.4765 C   0  0  0  0  0  0  0  0  0  0  0  0
  -47.8792   -6.9932  -25.4282 O   0  0  0  0  0  0  0  0  0  0  0  0
 32 33  1  0  0  0
 33 24  1  0  0  0
 24 25  2  0  0  0
 25 26  1  0  0  0
  1 26  1  0  0  0
  1  2  1  0  0  0
  2  3  1  0  0  0
  3  4  1  0  0  0
  4  5  2  0  0  0
  4  6  1  0  0  0
  6  7  1  0  0  0
  7  8  2  0  0  0
  8  9  1  0  0  0
  9 10  1  0  0  0
  9 11  2  0  0  0
 11 12  1  0  0  0
 12 14  1  0  0  0
 14 15  2  0  0  0
 15 16  1  0  0  0
 16 17  2  0  0  0
 17 18  1  0  0  0
 18 19  1  0  0  0
 19 20  1  0  0  0
 20 21  2  0  0  0
 21 22  1  0  0  0
 26 27  2  0  0  0
 27 28  1  0  0  0
 28 29  2  0  0  0
 29 30  1  0  0  0
 29 24  1  0  0  0
  8  1  1  0  0  0
 22 14  1  0  0  0
 12  7  1  0  0  0
 22 18  2  0  0  0
  6 13  1  0  0  0
 19 23  1  0  0  0
 30 31  1  0  0  0
M  END
>  <minimizedAffinity>
-8.20540

>  <minimizedRMSD>
1.09194

$$$$
ZINC000012786823


 23 25  0  0  0  0  0  0  0  0999 V2000
  -51.0714    0.1245  -19.4328 C   0  0  0  0  0  0  0  0  0  0  0  0
  -51.9503    0.5463  -20.4386 C   0  0  0  0  0  0  0  0  0  0  0  0
  -52.7329    1.6863  -20.2584 C   0  0  0  0  0  0  0  0  0  0  0  0
  -53.5159    2.0595  -21.1693 O   0  0  0  0  0  0  0  0  0  0  0  0
  -52.6530    2.3931  -19.1016 N   0  0  0  0  0  0  0  0  0  0  0  0
  -51.8195    2.0213  -18.0955 C   0  0  0  0  0  0  0  0  0  0  0  0
  -51.7657    2.7831  -16.9246 C   0  0  0  0  0  0  0  0  0  0  0  0
  -50.9041    2.4168  -15.8880 C   0  0  0  0  0  0  0  0  0  0  0  0
  -50.0908    1.2886  -16.0186 C   0  0  0  0  0  0  0  0  0  0  0  0
  -50.1387    0.5212  -17.1853 C   0  0  0  0  0  0  0  0  0  0  0  0
  -51.0045    0.8710  -18.2341 C   0  0  0  0  0  0  0  0  0  0  0  0
  -53.2130    3.1950  -18.9893 H   0  0  0  0  0  0  0  0  0  0  0  0
  -50.2463   -1.7795  -20.9239 N   0  0  0  0  0  0  0  0  0  0  0  0
  -49.7226   -3.1389  -21.0086 C   0  0  0  0  0  0  0  0  0  0  0  0
  -50.2765   -1.1122  -19.6483 C   0  0  0  0  0  0  0  0  0  0  0  0
  -49.6263   -1.5983  -18.6824 O   0  0  0  0  0  0  0  0  0  0  0  0
  -49.3563   -1.2698  -25.6357 C   0  0  0  0  0  0  0  0  0  0  0  0
  -50.4623   -0.4312  -25.0157 C   0  0  0  0  0  0  0  0  0  0  0  0
  -49.9095    0.5121  -23.9433 C   0  0  0  0  0  0  0  0  0  0  0  0
  -49.4718   -0.2499  -22.6927 C   0  0  0  0  0  0  0  0  0  0  0  0
  -50.6340   -1.0789  -22.1477 C   0  0  0  0  0  0  0  0  0  0  0  0
  -51.1328   -2.0654  -23.2026 C   0  0  0  0  0  0  0  0  0  0  0  0
  -51.5814   -1.3139  -24.4556 C   0  0  0  0  0  0  0  0  0  0  0  0
 17 18  1  0  0  0
 18 19  1  0  0  0
 19 20  1  0  0  0
 20 21  1  0  0  0
 21 13  1  0  0  0
 13 14  1  0  0  0
 13 15  1  0  0  0
 15 16  2  0  0  0
 15  1  1  0  0  0
  1  2  2  0  0  0
  2  3  1  0  0  0
  3  4  2  0  0  0
  3  5  1  0  0  0
  5  6  1  0  0  0
  6  7  2  0  0  0
  7  8  1  0  0  0
  8  9  2  0  0  0
  9 10  1  0  0  0
 10 11  2  0  0  0
 21 22  1  0  0  0
 22 23  1  0  0  0
 23 18  1  0  0  0
 11  1  1  0  0  0
 11  6  1  0  0  0
  5 12  1  0  0  0
M  END
>  <minimizedAffinity>
-8.20096

>  <minimizedRMSD>
1.26045

$$$$
ZINC000031809026


 31 35  0  0  0  0  0  0  0  0999 V2000
  -47.9360   -1.7663  -23.6959 C   0  0  0  0  0  0  0  0  0  0  0  0
  -48.7983   -1.5773  -22.4959 C   0  0  0  0  0  0  0  0  0  0  0  0
  -49.6208   -0.5235  -22.3622 N   0  0  0  0  0  0  0  0  0  0  0  0
  -50.2019   -0.6098  -21.1807 N   0  0  0  0  0  0  0  0  0  0  0  0
  -49.7609   -1.7119  -20.5329 C   0  0  0  0  0  0  0  0  0  0  0  0
  -48.8698   -2.4016  -21.3694 C   0  0  0  0  0  0  0  0  0  0  0  0
  -48.0715   -3.6812  -21.1507 C   0  0  0  0  0  0  0  0  0  0  0  0
  -48.7047   -4.7953  -19.8603 S   0  0  0  0  0  0  0  0  0  0  0  0
  -48.3656   -3.6248  -18.5301 C   0  0  0  0  0  0  0  0  0  0  0  0
  -49.6348   -2.9144  -18.2557 C   0  0  0  0  0  0  0  0  0  0  0  0
  -50.2004   -3.0821  -17.1471 O   0  0  0  0  0  0  0  0  0  0  0  0
  -50.2605   -2.0892  -19.2401 N   0  0  0  0  0  0  0  0  0  0  0  0
  -51.1472   -1.7338  -19.0020 H   0  0  0  0  0  0  0  0  0  0  0  0
  -51.1464    0.3647  -20.7142 C   0  0  0  0  0  0  0  0  0  0  0  0
  -52.0907    0.8639  -21.5680 N   0  0  0  0  0  0  0  0  0  0  0  0
  -52.9742    1.8341  -21.1747 C   0  0  0  0  0  0  0  0  0  0  0  0
  -52.9284    2.3414  -19.9058 N   0  0  0  0  0  0  0  0  0  0  0  0
  -51.9980    1.8450  -19.0558 C   0  0  0  0  0  0  0  0  0  0  0  0
  -51.7492    2.2697  -17.8117 N   0  0  0  0  0  0  0  0  0  0  0  0
  -50.6776    1.5125  -17.4509 C   0  0  0  0  0  0  0  0  0  0  0  0
  -50.2517    0.6597  -18.4224 N   0  0  0  0  0  0  0  0  0  0  0  0
  -51.1155    0.8889  -19.4218 C   0  0  0  0  0  0  0  0  0  0  0  0
  -52.2221    2.9569  -17.2890 H   0  0  0  0  0  0  0  0  0  0  0  0
  -47.8959   -4.4922  -22.4100 C   0  0  0  0  0  0  0  0  0  0  0  0
  -46.5872   -4.8113  -22.8046 C   0  0  0  0  0  0  0  0  0  0  0  0
  -46.3582   -5.5754  -23.9515 C   0  0  0  0  0  0  0  0  0  0  0  0
  -47.4316   -6.0320  -24.7156 C   0  0  0  0  0  0  0  0  0  0  0  0
  -47.2072   -6.7665  -25.8306 F   0  0  0  0  0  0  0  0  0  0  0  0
  -48.7373   -5.7184  -24.3381 C   0  0  0  0  0  0  0  0  0  0  0  0
  -48.9832   -4.9543  -23.1935 C   0  0  0  0  0  0  0  0  0  0  0  0
  -50.6590   -4.6036  -22.7964 Cl  0  0  0  0  0  0  0  0  0  0  0  0
  1  2  1  0  0  0
  2  3  2  0  0  0
  3  4  1  0  0  0
  4 14  1  0  0  0
 14 15  2  0  0  0
 15 16  1  0  0  0
 16 17  2  0  0  0
 17 18  1  0  0  0
 18 19  1  0  0  0
 19 20  1  0  0  0
 20 21  2  0  0  0
 21 22  1  0  0  0
  4  5  1  0  0  0
  5  6  2  0  0  0
  6  7  1  0  0  0
  7 24  1  0  0  0
 24 25  2  0  0  0
 25 26  1  0  0  0
 26 27  2  0  0  0
 27 28  1  0  0  0
 27 29  1  0  0  0
 29 30  2  0  0  0
 30 31  1  0  0  0
  7  8  1  0  0  0
  8  9  1  0  0  0
  9 10  1  0  0  0
 10 11  2  0  0  0
 10 12  1  0  0  0
  6  2  1  0  0  0
 30 24  1  0  0  0
 22 14  1  0  0  0
 12  5  1  0  0  0
 22 18  2  0  0  0
 19 23  1  0  0  0
 12 13  1  0  0  0
M  END
>  <minimizedAffinity>
-8.19213

>  <minimizedRMSD>
0.88665

$$$$
ZINC000032760773


 25 27  0  0  0  0  0  0  0  0999 V2000
  -48.7213   -2.9687  -20.0259 C   0  0  0  0  0  0  0  0  0  0  0  0
  -49.2669   -1.6231  -19.9048 N   0  0  0  0  0  0  0  0  0  0  0  0
  -50.2935   -1.3624  -18.9286 C   0  0  0  0  0  0  0  0  0  0  0  0
  -50.6053   -2.2661  -18.1052 O   0  0  0  0  0  0  0  0  0  0  0  0
  -51.0138   -0.0636  -18.8780 C   0  0  0  0  0  0  0  0  0  0  0  0
  -51.8369    0.2948  -19.9523 C   0  0  0  0  0  0  0  0  0  0  0  0
  -52.5526    1.4912  -19.9245 C   0  0  0  0  0  0  0  0  0  0  0  0
  -53.2858    1.8057  -20.8971 O   0  0  0  0  0  0  0  0  0  0  0  0
  -52.4611    2.3162  -18.8499 N   0  0  0  0  0  0  0  0  0  0  0  0
  -51.6800    2.0104  -17.7815 C   0  0  0  0  0  0  0  0  0  0  0  0
  -51.6119    2.8927  -16.6994 C   0  0  0  0  0  0  0  0  0  0  0  0
  -50.8035    2.5938  -15.6001 C   0  0  0  0  0  0  0  0  0  0  0  0
  -50.0581    1.4128  -15.5791 C   0  0  0  0  0  0  0  0  0  0  0  0
  -50.1208    0.5249  -16.6563 C   0  0  0  0  0  0  0  0  0  0  0  0
  -50.9341    0.8061  -17.7661 C   0  0  0  0  0  0  0  0  0  0  0  0
  -52.9736    3.1568  -18.8450 H   0  0  0  0  0  0  0  0  0  0  0  0
  -48.5706   -0.5289  -20.5770 C   0  0  0  0  0  0  0  0  0  0  0  0
  -48.6348   -0.6829  -22.0613 C   0  0  0  0  0  0  0  0  0  0  0  0
  -49.6707   -0.0866  -22.7889 C   0  0  0  0  0  0  0  0  0  0  0  0
  -49.7347   -0.2459  -24.1761 C   0  0  0  0  0  0  0  0  0  0  0  0
  -48.7646   -1.0038  -24.8390 C   0  0  0  0  0  0  0  0  0  0  0  0
  -48.8320   -1.1547  -26.1843 F   0  0  0  0  0  0  0  0  0  0  0  0
  -47.7296   -1.6046  -24.1123 C   0  0  0  0  0  0  0  0  0  0  0  0
  -46.7873   -2.3428  -24.7479 F   0  0  0  0  0  0  0  0  0  0  0  0
  -47.6669   -1.4446  -22.7246 C   0  0  0  0  0  0  0  0  0  0  0  0
  1  2  1  0  0  0
  2 17  1  0  0  0
 17 18  1  0  0  0
 18 19  2  0  0  0
 19 20  1  0  0  0
 20 21  2  0  0  0
 21 22  1  0  0  0
 21 23  1  0  0  0
 23 24  1  0  0  0
 23 25  2  0  0  0
  2  3  1  0  0  0
  3  4  2  0  0  0
  3  5  1  0  0  0
  5  6  2  0  0  0
  6  7  1  0  0  0
  7  8  2  0  0  0
  7  9  1  0  0  0
  9 10  1  0  0  0
 10 11  2  0  0  0
 11 12  1  0  0  0
 12 13  2  0  0  0
 13 14  1  0  0  0
 14 15  2  0  0  0
 25 18  1  0  0  0
 15  5  1  0  0  0
 15 10  1  0  0  0
  9 16  1  0  0  0
M  END
>  <minimizedAffinity>
-8.18760

>  <minimizedRMSD>
0.87936

$$$$
ZINC000230157758 PubChem-100900615


 32 34  0  0  0  0  0  0  0  0999 V2000
  -49.4151   -1.2950  -25.9933 C   0  0  0  0  0  0  0  0  0  0  0  0
  -49.3937   -0.9295  -24.5476 C   0  0  0  0  0  0  0  0  0  0  0  0
  -50.4614   -0.1905  -24.0267 C   0  0  0  0  0  0  0  0  0  0  0  0
  -50.4737    0.1682  -22.6777 C   0  0  0  0  0  0  0  0  0  0  0  0
  -51.5327    0.9029  -22.1481 C   0  0  0  0  0  0  0  0  0  0  0  0
  -51.5280    1.2493  -20.7918 C   0  0  0  0  0  0  0  0  0  0  0  0
  -50.4493    0.8485  -19.9756 C   0  0  0  0  0  0  0  0  0  0  0  0
  -49.4236    0.1331  -20.5223 N   0  0  0  0  0  0  0  0  0  0  0  0
  -49.4094   -0.2136  -21.8361 C   0  0  0  0  0  0  0  0  0  0  0  0
  -48.3439   -0.9517  -22.3557 C   0  0  0  0  0  0  0  0  0  0  0  0
  -48.3290   -1.3119  -23.7076 C   0  0  0  0  0  0  0  0  0  0  0  0
  -47.1725   -2.0985  -24.2251 C   0  0  0  0  0  0  0  0  0  0  0  0
  -50.4453    1.1670  -18.6445 N   0  0  0  0  0  0  0  0  0  0  0  0
  -51.4721    1.9011  -18.1121 C   0  0  0  0  0  0  0  0  0  0  0  0
  -51.4678    2.2204  -16.8924 O   0  0  0  0  0  0  0  0  0  0  0  0
  -52.5115    2.2939  -18.8940 N   0  0  0  0  0  0  0  0  0  0  0  0
  -52.5661    1.9840  -20.2129 C   0  0  0  0  0  0  0  0  0  0  0  0
  -53.5515    2.3646  -20.9005 O   0  0  0  0  0  0  0  0  0  0  0  0
  -53.2432    2.8165  -18.4930 H   0  0  0  0  0  0  0  0  0  0  0  0
  -49.3319    0.7359  -17.7952 C   0  0  0  0  0  0  0  0  0  0  0  0
  -49.6615   -0.5553  -17.0493 C   0  0  0  0  0  0  0  0  0  0  0  0
  -49.7725   -0.2614  -15.6890 O   0  0  0  0  0  0  0  0  0  0  0  0
  -48.9309    0.0966  -15.3659 H   0  0  0  0  0  0  0  0  0  0  0  0
  -48.5795   -1.6181  -17.2708 C   0  0  0  0  0  0  0  0  0  0  0  0
  -48.1736   -2.1799  -16.0556 O   0  0  0  0  0  0  0  0  0  0  0  0
  -48.9244   -2.6347  -15.6428 H   0  0  0  0  0  0  0  0  0  0  0  0
  -49.0310   -2.7172  -18.2385 C   0  0  0  0  0  0  0  0  0  0  0  0
  -48.2254   -2.6950  -19.3763 O   0  0  0  0  0  0  0  0  0  0  0  0
  -47.3071   -2.8818  -19.1259 H   0  0  0  0  0  0  0  0  0  0  0  0
  -48.9911   -4.1085  -17.6179 C   0  0  0  0  0  0  0  0  0  0  0  0
  -49.9119   -4.1988  -16.5744 O   0  0  0  0  0  0  0  0  0  0  0  0
  -49.6917   -3.5461  -15.8915 H   0  0  0  0  0  0  0  0  0  0  0  0
  1  2  1  0  0  0
  2  3  2  0  0  0
  3  4  1  0  0  0
  4  5  2  0  0  0
  5  6  1  0  0  0
  6  7  2  0  0  0
  7  8  1  0  0  0
  8  9  2  0  0  0
  9 10  1  0  0  0
 10 11  2  0  0  0
 11 12  1  0  0  0
  7 13  1  0  0  0
 13 14  1  0  0  0
 14 15  2  0  0  0
 14 16  1  0  0  0
 16 17  1  0  0  0
 17 18  2  0  0  0
 13 20  1  0  0  0
 21 20  1  0  0  0
 21 24  1  0  0  0
 24 27  1  0  0  0
 27 30  1  0  0  0
 30 31  1  0  0  0
 27 28  1  0  0  0
 24 25  1  0  0  0
 21 22  1  0  0  0
 11  2  1  0  0  0
  9  4  1  0  0  0
 17  6  1  0  0  0
 16 19  1  0  0  0
 31 32  1  0  0  0
 28 29  1  0  0  0
 25 26  1  0  0  0
 22 23  1  0  0  0
M  END
>  <minimizedAffinity>
-8.18737

>  <minimizedRMSD>
1.64626

$$$$
ZINC000067641329 MCULE-5536280821 MolPort-016-591-893


 28 31  0  0  0  0  0  0  0  0999 V2000
  -50.3532   -1.2902  -19.4924 C   0  0  0  0  0  0  0  0  0  0  0  0
  -50.0732   -1.8588  -20.6893 N   0  0  0  0  0  0  0  0  0  0  0  0
  -49.5330   -3.0417  -20.4545 N   0  0  0  0  0  0  0  0  0  0  0  0
  -49.4919   -3.1691  -19.1136 C   0  0  0  0  0  0  0  0  0  0  0  0
  -49.9970   -2.0962  -18.4708 N   0  0  0  0  0  0  0  0  0  0  0  0
  -51.0747   -0.0148  -19.2845 C   0  0  0  0  0  0  0  0  0  0  0  0
  -51.9614    0.4311  -20.2719 C   0  0  0  0  0  0  0  0  0  0  0  0
  -52.6842    1.6094  -20.0840 C   0  0  0  0  0  0  0  0  0  0  0  0
  -53.4731    2.0101  -20.9781 O   0  0  0  0  0  0  0  0  0  0  0  0
  -52.5401    2.3236  -18.9374 N   0  0  0  0  0  0  0  0  0  0  0  0
  -51.7003    1.9214  -17.9478 C   0  0  0  0  0  0  0  0  0  0  0  0
  -51.5825    2.6867  -16.7842 C   0  0  0  0  0  0  0  0  0  0  0  0
  -50.7176    2.2831  -15.7639 C   0  0  0  0  0  0  0  0  0  0  0  0
  -49.9658    1.1136  -15.9034 C   0  0  0  0  0  0  0  0  0  0  0  0
  -49.1266    0.7268  -14.9132 F   0  0  0  0  0  0  0  0  0  0  0  0
  -50.0773    0.3428  -17.0636 C   0  0  0  0  0  0  0  0  0  0  0  0
  -50.9460    0.7326  -18.0951 C   0  0  0  0  0  0  0  0  0  0  0  0
  -53.0570    3.1534  -18.8206 H   0  0  0  0  0  0  0  0  0  0  0  0
  -50.2121   -1.3109  -22.0117 C   0  0  0  0  0  0  0  0  0  0  0  0
  -49.6021   -0.0989  -22.3624 C   0  0  0  0  0  0  0  0  0  0  0  0
  -49.7243    0.3849  -23.6663 C   0  0  0  0  0  0  0  0  0  0  0  0
  -50.4223   -0.3239  -24.5933 N   0  0  0  0  0  0  0  0  0  0  0  0
  -51.0106   -1.5106  -24.2855 C   0  0  0  0  0  0  0  0  0  0  0  0
  -51.7579   -2.2611  -25.3278 C   0  0  0  0  0  0  0  0  0  0  0  0
  -50.9099   -2.0271  -22.9921 C   0  0  0  0  0  0  0  0  0  0  0  0
  -48.9504   -4.3652  -18.4038 C   0  0  0  0  0  0  0  0  0  0  0  0
  -47.6621   -4.0149  -17.6853 C   0  0  0  0  0  0  0  0  0  0  0  0
  -48.7022   -5.4946  -19.3843 C   0  0  0  0  0  0  0  0  0  0  0  0
  1  6  1  0  0  0
  6  7  2  0  0  0
  7  8  1  0  0  0
  8  9  2  0  0  0
  8 10  1  0  0  0
 10 11  1  0  0  0
 11 12  2  0  0  0
 12 13  1  0  0  0
 13 14  2  0  0  0
 14 15  1  0  0  0
 14 16  1  0  0  0
 16 17  2  0  0  0
  1  2  1  0  0  0
  2 19  1  0  0  0
 19 20  2  0  0  0
 20 21  1  0  0  0
 21 22  2  0  0  0
 22 23  1  0  0  0
 23 24  1  0  0  0
 23 25  2  0  0  0
  2  3  1  0  0  0
  3  4  2  0  0  0
  4 26  1  0  0  0
 26 27  1  0  0  0
 26 28  1  0  0  0
  4  5  1  0  0  0
  5  1  2  0  0  0
 17  6  1  0  0  0
 25 19  1  0  0  0
 17 11  1  0  0  0
 10 18  1  0  0  0
M  END
>  <minimizedAffinity>
-8.17891

>  <minimizedRMSD>
1.29770

$$$$
ZINC000008861088


 24 26  0  0  0  0  0  0  0  0999 V2000
  -49.1963    0.1807  -20.2939 C   0  0  0  0  0  0  0  0  0  0  0  0
  -48.0498    0.6926  -20.3922 O   0  0  0  0  0  0  0  0  0  0  0  0
  -50.2864    0.9436  -19.6358 C   0  0  0  0  0  0  0  0  0  0  0  0
  -51.3071    1.4726  -20.4356 C   0  0  0  0  0  0  0  0  0  0  0  0
  -52.3592    2.1809  -19.8559 C   0  0  0  0  0  0  0  0  0  0  0  0
  -53.2700    2.6561  -20.5818 O   0  0  0  0  0  0  0  0  0  0  0  0
  -52.4033    2.3582  -18.5102 N   0  0  0  0  0  0  0  0  0  0  0  0
  -51.4382    1.8608  -17.6935 C   0  0  0  0  0  0  0  0  0  0  0  0
  -51.5211    2.0745  -16.3147 C   0  0  0  0  0  0  0  0  0  0  0  0
  -50.5280    1.5784  -15.4668 C   0  0  0  0  0  0  0  0  0  0  0  0
  -49.4466    0.8687  -15.9944 C   0  0  0  0  0  0  0  0  0  0  0  0
  -49.3564    0.6501  -17.3715 C   0  0  0  0  0  0  0  0  0  0  0  0
  -50.3498    1.1352  -18.2370 C   0  0  0  0  0  0  0  0  0  0  0  0
  -53.1534    2.8599  -18.1166 H   0  0  0  0  0  0  0  0  0  0  0  0
  -49.3770   -1.1384  -20.7347 O   0  0  0  0  0  0  0  0  0  0  0  0
  -51.3104   -4.5418  -23.6655 C   0  0  0  0  0  0  0  0  0  0  0  0
  -50.7087   -3.1874  -23.5081 C   0  0  0  0  0  0  0  0  0  0  0  0
  -50.3252   -2.7713  -22.2302 C   0  0  0  0  0  0  0  0  0  0  0  0
  -49.7617   -1.5095  -22.0305 C   0  0  0  0  0  0  0  0  0  0  0  0
  -49.5646   -0.6649  -23.1325 C   0  0  0  0  0  0  0  0  0  0  0  0
  -49.9446   -1.0663  -24.4149 C   0  0  0  0  0  0  0  0  0  0  0  0
  -49.7220   -0.1270  -25.5503 C   0  0  0  0  0  0  0  0  0  0  0  0
  -50.5230   -2.3340  -24.6120 C   0  0  0  0  0  0  0  0  0  0  0  0
  -51.0073   -2.8504  -26.2293 Cl  0  0  0  0  0  0  0  0  0  0  0  0
 16 17  1  0  0  0
 17 18  2  0  0  0
 18 19  1  0  0  0
 19 15  1  0  0  0
 15  1  1  0  0  0
  1  2  2  0  0  0
  1  3  1  0  0  0
  3  4  2  0  0  0
  4  5  1  0  0  0
  5  6  2  0  0  0
  5  7  1  0  0  0
  7  8  1  0  0  0
  8  9  2  0  0  0
  9 10  1  0  0  0
 10 11  2  0  0  0
 11 12  1  0  0  0
 12 13  2  0  0  0
 19 20  2  0  0  0
 20 21  1  0  0  0
 21 22  1  0  0  0
 21 23  2  0  0  0
 23 24  1  0  0  0
 23 17  1  0  0  0
 13  3  1  0  0  0
 13  8  1  0  0  0
  7 14  1  0  0  0
M  END
>  <minimizedAffinity>
-8.17528

>  <minimizedRMSD>
2.64843

$$$$
ZINC000009668994 ZINC09668994 MCULE-8076656681 MolPort-002-986-247 PubChem-16479684


 29 31  0  0  0  0  0  0  0  0999 V2000
  -51.9171    0.6397  -20.9486 C   0  0  0  0  0  0  0  0  0  0  0  0
  -52.5983    1.7798  -20.2666 C   0  0  0  0  0  0  0  0  0  0  0  0
  -53.5326    2.3676  -20.8700 O   0  0  0  0  0  0  0  0  0  0  0  0
  -52.2157    2.2430  -18.9639 N   0  0  0  0  0  0  0  0  0  0  0  0
  -52.5549    3.1296  -18.7027 H   0  0  0  0  0  0  0  0  0  0  0  0
  -51.3965    1.5683  -17.9936 C   0  0  0  0  0  0  0  0  0  0  0  0
  -50.7790    0.3419  -18.2828 C   0  0  0  0  0  0  0  0  0  0  0  0
  -50.0052   -0.3230  -17.3234 C   0  0  0  0  0  0  0  0  0  0  0  0
  -49.8600    0.2447  -16.0506 C   0  0  0  0  0  0  0  0  0  0  0  0
  -50.4767    1.4598  -15.7467 C   0  0  0  0  0  0  0  0  0  0  0  0
  -51.2436    2.1221  -16.7099 C   0  0  0  0  0  0  0  0  0  0  0  0
  -51.8931    3.4139  -16.3472 C   0  0  0  0  0  0  0  0  0  0  0  0
  -49.3645   -1.5644  -17.6464 N   0  0  0  0  0  0  0  0  0  0  0  0
  -50.0228   -2.7557  -17.4414 O   0  0  0  0  0  0  0  0  0  0  0  0
  -48.2151   -1.5794  -18.1339 O   0  0  0  0  0  0  0  0  0  0  0  0
  -51.3940    1.1234  -22.6203 S   0  0  0  0  0  0  0  0  0  0  0  0
  -48.3520   -1.2602  -22.7640 C   0  0  0  0  0  0  0  0  0  0  0  0
  -48.0657   -0.5909  -21.6307 N   0  0  0  0  0  0  0  0  0  0  0  0
  -49.0271    0.3029  -21.4535 N   0  0  0  0  0  0  0  0  0  0  0  0
  -49.8804    0.1720  -22.4866 C   0  0  0  0  0  0  0  0  0  0  0  0
  -49.4909   -0.8074  -23.3354 N   0  0  0  0  0  0  0  0  0  0  0  0
  -50.1348   -1.2663  -24.5423 C   0  0  0  0  0  0  0  0  0  0  0  0
  -50.8071   -2.4991  -24.5691 C   0  0  0  0  0  0  0  0  0  0  0  0
  -51.4354   -2.9412  -25.7379 C   0  0  0  0  0  0  0  0  0  0  0  0
  -51.3920   -2.1563  -26.8937 C   0  0  0  0  0  0  0  0  0  0  0  0
  -50.7213   -0.9313  -26.8814 C   0  0  0  0  0  0  0  0  0  0  0  0
  -50.0975   -0.4896  -25.7115 C   0  0  0  0  0  0  0  0  0  0  0  0
  -47.0805   -2.0396  -24.7286 C   0  0  0  0  0  0  0  0  0  0  0  0
  -47.4935   -2.3548  -23.3054 C   0  0  0  0  0  0  0  0  0  0  0  0
 28 29  1  0  0  0
 29 17  1  0  0  0
 17 18  2  0  0  0
 18 19  1  0  0  0
 19 20  2  0  0  0
 20 16  1  0  0  0
 20 21  1  0  0  0
 16  1  1  0  0  0
  1  2  1  0  0  0
  2  3  2  0  0  0
  2  4  1  0  0  0
  4  6  1  0  0  0
  6  7  2  0  0  0
  7  8  1  0  0  0
  8  9  2  0  0  0
  8 13  1  0  0  0
  9 10  1  0  0  0
 10 11  2  0  0  0
 11 12  1  0  0  0
 11  6  1  0  0  0
 13 14  1  0  0  0
 13 15  2  0  0  0
 21 22  1  0  0  0
 21 17  1  0  0  0
 22 23  2  0  0  0
 23 24  1  0  0  0
 24 25  2  0  0  0
 25 26  1  0  0  0
 26 27  2  0  0  0
 27 22  1  0  0  0
  4  5  1  0  0  0
M  CHG 1  13   1
M  CHG 1  14  -1
M  END
>  <minimizedAffinity>
-8.15974

>  <minimizedRMSD>
2.21989

$$$$
ZINC000253471169 PubChem-124891265


 39 43  0  0  0  0  0  0  0  0999 V2000
  -50.2271   -0.4347  -21.9470 C   0  0  0  0  0  0  0  0  0  0  0  0
  -49.5446   -1.0055  -23.1643 C   0  0  0  0  0  0  0  0  0  0  0  0
  -49.0564   -2.3192  -23.1136 C   0  0  0  0  0  0  0  0  0  0  0  0
  -49.2156   -3.0828  -21.9587 O   0  0  0  0  0  0  0  0  0  0  0  0
  -48.4123   -2.8582  -24.2315 C   0  0  0  0  0  0  0  0  0  0  0  0
  -47.9188   -4.1703  -24.2310 C   0  0  0  0  0  0  0  0  0  0  0  0
  -47.2765   -4.6758  -25.3652 C   0  0  0  0  0  0  0  0  0  0  0  0
  -47.1260   -3.8741  -26.5023 C   0  0  0  0  0  0  0  0  0  0  0  0
  -47.6187   -2.5656  -26.5103 C   0  0  0  0  0  0  0  0  0  0  0  0
  -48.2633   -2.0530  -25.3804 C   0  0  0  0  0  0  0  0  0  0  0  0
  -48.7351   -0.8111  -25.3949 O   0  0  0  0  0  0  0  0  0  0  0  0
  -49.3604   -0.2666  -24.3542 C   0  0  0  0  0  0  0  0  0  0  0  0
  -49.7884    0.9143  -24.4497 O   0  0  0  0  0  0  0  0  0  0  0  0
  -49.6479   -2.7179  -21.2117 H   0  0  0  0  0  0  0  0  0  0  0  0
  -48.1390   -1.1703  -18.2373 C   0  0  0  0  0  0  0  0  0  0  0  0
  -47.5807   -0.3293  -19.2055 C   0  0  0  0  0  0  0  0  0  0  0  0
  -48.2409   -0.0901  -20.4123 C   0  0  0  0  0  0  0  0  0  0  0  0
  -49.4739   -0.6976  -20.6735 C   0  0  0  0  0  0  0  0  0  0  0  0
  -50.0394   -1.5413  -19.7151 C   0  0  0  0  0  0  0  0  0  0  0  0
  -49.3864   -1.7826  -18.5021 C   0  0  0  0  0  0  0  0  0  0  0  0
  -49.9981   -2.6215  -17.5792 O   0  0  0  0  0  0  0  0  0  0  0  0
  -50.8247   -3.0147  -17.7793 H   0  0  0  0  0  0  0  0  0  0  0  0
  -47.4304   -0.4538  -15.9485 C   0  0  0  0  0  0  0  0  0  0  0  0
  -47.4174   -1.3526  -17.0484 O   0  0  0  0  0  0  0  0  0  0  0  0
  -50.6565    1.0227  -22.1264 C   0  0  0  0  0  0  0  0  0  0  0  0
  -51.7408    1.3828  -21.1674 C   0  0  0  0  0  0  0  0  0  0  0  0
  -52.9179    0.9935  -21.3854 O   0  0  0  0  0  0  0  0  0  0  0  0
  -51.4354    2.1585  -20.0081 N   0  0  0  0  0  0  0  0  0  0  0  0
  -50.5277    2.5266  -19.9099 H   0  0  0  0  0  0  0  0  0  0  0  0
  -52.4148    2.4247  -18.9679 C   0  0  0  0  0  0  0  0  0  0  0  0
  -51.7646    2.3098  -17.6350 C   0  0  0  0  0  0  0  0  0  0  0  0
  -50.9475    1.1930  -17.3499 C   0  0  0  0  0  0  0  0  0  0  0  0
  -50.3025    1.0782  -16.1060 C   0  0  0  0  0  0  0  0  0  0  0  0
  -50.5009    2.1016  -15.1838 C   0  0  0  0  0  0  0  0  0  0  0  0
  -51.2821    3.1778  -15.4569 C   0  0  0  0  0  0  0  0  0  0  0  0
  -51.9337    3.3284  -16.6786 C   0  0  0  0  0  0  0  0  0  0  0  0
  -51.2981    4.0230  -14.3649 O   0  0  0  0  0  0  0  0  0  0  0  0
  -50.4801    3.4414  -13.3394 C   0  0  0  0  0  0  0  0  0  0  0  0
  -49.9893    2.2178  -13.9061 O   0  0  0  0  0  0  0  0  0  0  0  0
 23 24  1  0  0  0
 24 15  1  0  0  0
 15 16  2  0  0  0
 16 17  1  0  0  0
 17 18  2  0  0  0
  1 18  1  0  0  0
  1 25  1  0  0  0
 25 26  1  0  0  0
 26 27  2  0  0  0
 26 28  1  0  0  0
 28 30  1  0  0  0
 30 31  1  0  0  0
 31 32  2  0  0  0
 32 33  1  0  0  0
 33 34  2  0  0  0
 34 35  1  0  0  0
 35 36  2  0  0  0
 35 37  1  0  0  0
 37 38  1  0  0  0
 38 39  1  0  0  0
  1  2  1  0  0  0
  2  3  2  0  0  0
  3  4  1  0  0  0
  3  5  1  0  0  0
  5  6  2  0  0  0
  6  7  1  0  0  0
  7  8  2  0  0  0
  8  9  1  0  0  0
  9 10  2  0  0  0
 10 11  1  0  0  0
 11 12  1  0  0  0
 12 13  2  0  0  0
 18 19  1  0  0  0
 19 20  2  0  0  0
 20 21  1  0  0  0
 20 15  1  0  0  0
 36 31  1  0  0  0
 12  2  1  0  0  0
 39 34  1  0  0  0
 10  5  1  0  0  0
 28 29  1  0  0  0
  4 14  1  0  0  0
 21 22  1  0  0  0
M  END
>  <minimizedAffinity>
-8.15750

>  <minimizedRMSD>
2.10964

$$$$
ZINC000030726767 ZINC30726767 PubChem-37870901


 33 36  0  0  0  0  0  0  0  0999 V2000
  -52.2397    2.4243  -18.9758 N   0  0  0  0  0  0  0  0  0  0  0  0
  -52.5670    1.8698  -20.2574 C   0  0  0  0  0  0  0  0  0  0  0  0
  -53.3923    2.4739  -20.9904 O   0  0  0  0  0  0  0  0  0  0  0  0
  -52.5538    3.3414  -18.8045 H   0  0  0  0  0  0  0  0  0  0  0  0
  -51.5024    2.3969  -16.6320 C   0  0  0  0  0  0  0  0  0  0  0  0
  -50.8056    1.7832  -15.5683 C   0  0  0  0  0  0  0  0  0  0  0  0
  -50.1376    0.5871  -15.8117 C   0  0  0  0  0  0  0  0  0  0  0  0
  -50.1546    0.0034  -17.0412 C   0  0  0  0  0  0  0  0  0  0  0  0
  -50.8319    0.5734  -18.1143 C   0  0  0  0  0  0  0  0  0  0  0  0
  -51.5063    1.7950  -17.9140 C   0  0  0  0  0  0  0  0  0  0  0  0
  -49.4355   -1.1702  -17.0499 O   0  0  0  0  0  0  0  0  0  0  0  0
  -48.8746   -1.4096  -15.7585 C   0  0  0  0  0  0  0  0  0  0  0  0
  -49.3461   -0.2393  -14.8668 C   0  0  0  0  0  0  0  0  0  0  0  0
  -49.4008   -2.7192  -15.2061 C   0  0  0  0  0  0  0  0  0  0  0  0
  -52.1897    3.6012  -16.4422 O   0  0  0  0  0  0  0  0  0  0  0  0
  -51.3315    5.6919  -15.6444 C   0  0  0  0  0  0  0  0  0  0  0  0
  -52.0329    4.4012  -15.2783 C   0  0  0  0  0  0  0  0  0  0  0  0
  -51.9009    0.6440  -20.7881 C   0  0  0  0  0  0  0  0  0  0  0  0
  -50.8248    1.0363  -21.7858 C   0  0  0  0  0  0  0  0  0  0  0  0
  -50.0145   -0.1626  -22.1876 C   0  0  0  0  0  0  0  0  0  0  0  0
  -50.4579   -0.9874  -23.2531 C   0  0  0  0  0  0  0  0  0  0  0  0
  -49.6498   -2.0779  -23.6048 C   0  0  0  0  0  0  0  0  0  0  0  0
  -48.5127   -2.3530  -22.8991 C   0  0  0  0  0  0  0  0  0  0  0  0
  -48.0768   -1.5798  -21.8763 N   0  0  0  0  0  0  0  0  0  0  0  0
  -48.7966   -0.4768  -21.5184 C   0  0  0  0  0  0  0  0  0  0  0  0
  -48.2757    0.3805  -20.4152 C   0  0  0  0  0  0  0  0  0  0  0  0
  -47.9529   -3.4889  -23.3372 N   0  0  0  0  0  0  0  0  0  0  0  0
  -48.6877   -3.9746  -24.3280 N   0  0  0  0  0  0  0  0  0  0  0  0
  -49.7250   -3.1251  -24.5278 C   0  0  0  0  0  0  0  0  0  0  0  0
  -46.7511   -4.1223  -22.8237 C   0  0  0  0  0  0  0  0  0  0  0  0
  -51.7788   -0.7409  -23.9047 C   0  0  0  0  0  0  0  0  0  0  0  0
  -50.6701   -3.3343  -25.5345 O   0  0  0  0  0  0  0  0  0  0  0  0
  -50.5245   -2.8119  -26.8446 C   0  0  0  0  0  0  0  0  0  0  0  0
 16 17  1  0  0  0
 17 15  1  0  0  0
 15  5  1  0  0  0
  5  6  2  0  0  0
  6  7  1  0  0  0
  7  8  2  0  0  0
  8  9  1  0  0  0
  8 11  1  0  0  0
  9 10  2  0  0  0
 10  1  1  0  0  0
 10  5  1  0  0  0
  1  2  1  0  0  0
  2  3  2  0  0  0
  2 18  1  0  0  0
 18 19  1  0  0  0
 19 20  1  0  0  0
 20 21  2  0  0  0
 21 22  1  0  0  0
 21 31  1  0  0  0
 22 23  2  0  0  0
 23 24  1  0  0  0
 23 27  1  0  0  0
 24 25  2  0  0  0
 25 26  1  0  0  0
 25 20  1  0  0  0
 27 28  1  0  0  0
 27 30  1  0  0  0
 28 29  2  0  0  0
 29 32  1  0  0  0
 29 22  1  0  0  0
 32 33  1  0  0  0
 11 12  1  0  0  0
 12 13  1  0  0  0
 12 14  1  0  0  0
 13  7  1  0  0  0
  1  4  1  0  0  0
M  END
>  <minimizedAffinity>
-8.15333

>  <minimizedRMSD>
2.01824

$$$$
ZINC000004878449 PubChem-12923698


 32 34  0  0  0  0  0  0  0  0999 V2000
  -49.0860   -0.8505  -25.5089 C   0  0  0  0  0  0  0  0  0  0  0  0
  -49.1483   -0.7239  -24.0243 C   0  0  0  0  0  0  0  0  0  0  0  0
  -48.2604   -1.4232  -23.1890 C   0  0  0  0  0  0  0  0  0  0  0  0
  -48.3513   -1.2784  -21.8025 C   0  0  0  0  0  0  0  0  0  0  0  0
  -49.3206   -0.4418  -21.2207 C   0  0  0  0  0  0  0  0  0  0  0  0
  -50.2093    0.2602  -22.0773 C   0  0  0  0  0  0  0  0  0  0  0  0
  -50.1154    0.1126  -23.4630 C   0  0  0  0  0  0  0  0  0  0  0  0
  -51.1830    1.1035  -21.5494 C   0  0  0  0  0  0  0  0  0  0  0  0
  -51.2829    1.2593  -20.1721 C   0  0  0  0  0  0  0  0  0  0  0  0
  -52.2278    2.0860  -19.5616 C   0  0  0  0  0  0  0  0  0  0  0  0
  -53.0540    2.7419  -20.2509 O   0  0  0  0  0  0  0  0  0  0  0  0
  -52.2558    2.1843  -18.2065 N   0  0  0  0  0  0  0  0  0  0  0  0
  -51.3877    1.5000  -17.4118 C   0  0  0  0  0  0  0  0  0  0  0  0
  -51.4552    1.6265  -16.1620 O   0  0  0  0  0  0  0  0  0  0  0  0
  -50.4485    0.6812  -17.9554 N   0  0  0  0  0  0  0  0  0  0  0  0
  -50.3486    0.5204  -19.3016 C   0  0  0  0  0  0  0  0  0  0  0  0
  -49.4071   -0.3037  -19.8545 N   0  0  0  0  0  0  0  0  0  0  0  0
  -47.2125   -2.3262  -23.7463 C   0  0  0  0  0  0  0  0  0  0  0  0
  -52.9261    2.7697  -17.7856 H   0  0  0  0  0  0  0  0  0  0  0  0
  -48.4981   -1.0419  -18.9718 C   0  0  0  0  0  0  0  0  0  0  0  0
  -48.9944   -2.4661  -18.7570 C   0  0  0  0  0  0  0  0  0  0  0  0
  -50.2311   -2.4524  -18.1062 O   0  0  0  0  0  0  0  0  0  0  0  0
  -50.1361   -2.0261  -17.2402 H   0  0  0  0  0  0  0  0  0  0  0  0
  -47.9696   -3.2612  -17.9543 C   0  0  0  0  0  0  0  0  0  0  0  0
  -48.1910   -3.1190  -16.5800 O   0  0  0  0  0  0  0  0  0  0  0  0
  -49.0658   -3.4728  -16.3551 H   0  0  0  0  0  0  0  0  0  0  0  0
  -47.9693   -4.7338  -18.3654 C   0  0  0  0  0  0  0  0  0  0  0  0
  -48.9665   -5.4496  -17.6969 O   0  0  0  0  0  0  0  0  0  0  0  0
  -48.7923   -5.4327  -16.7429 H   0  0  0  0  0  0  0  0  0  0  0  0
  -46.6076   -5.3802  -18.1433 C   0  0  0  0  0  0  0  0  0  0  0  0
  -46.3082   -5.4559  -16.7813 O   0  0  0  0  0  0  0  0  0  0  0  0
  -46.2843   -4.5621  -16.4053 H   0  0  0  0  0  0  0  0  0  0  0  0
  1  2  1  0  0  0
  2  3  2  0  0  0
  3  4  1  0  0  0
  4  5  2  0  0  0
  5  6  1  0  0  0
  6  7  2  0  0  0
  6  8  1  0  0  0
  8  9  2  0  0  0
  9 10  1  0  0  0
 10 11  2  0  0  0
 10 12  1  0  0  0
 12 13  1  0  0  0
 13 14  2  0  0  0
 13 15  1  0  0  0
 15 16  2  0  0  0
 16 17  1  0  0  0
 17 20  1  0  0  0
 21 20  1  0  0  0
 21 24  1  0  0  0
 24 27  1  0  0  0
 27 30  1  0  0  0
 30 31  1  0  0  0
 27 28  1  0  0  0
 24 25  1  0  0  0
 21 22  1  0  0  0
  3 18  1  0  0  0
  7  2  1  0  0  0
 17  5  1  0  0  0
 16  9  1  0  0  0
 12 19  1  0  0  0
 31 32  1  0  0  0
 28 29  1  0  0  0
 25 26  1  0  0  0
 22 23  1  0  0  0
M  END
>  <minimizedAffinity>
-8.14960

>  <minimizedRMSD>
0.55113

$$$$
ZINC000005372517 ZINC05372517 PubChem-92261927


 32 34  0  0  0  0  0  0  0  0999 V2000
  -48.9338   -0.8223  -25.4772 C   0  0  0  0  0  0  0  0  0  0  0  0
  -49.0620   -0.7449  -23.9946 C   0  0  0  0  0  0  0  0  0  0  0  0
  -49.9875    0.1455  -23.4457 C   0  0  0  0  0  0  0  0  0  0  0  0
  -50.1416    0.2464  -22.0607 C   0  0  0  0  0  0  0  0  0  0  0  0
  -51.0788    1.1363  -21.5433 C   0  0  0  0  0  0  0  0  0  0  0  0
  -51.2443    1.2455  -20.1669 C   0  0  0  0  0  0  0  0  0  0  0  0
  -52.1719    2.1191  -19.5850 C   0  0  0  0  0  0  0  0  0  0  0  0
  -52.9027    2.8551  -20.3016 O   0  0  0  0  0  0  0  0  0  0  0  0
  -52.2865    2.1787  -18.2307 N   0  0  0  0  0  0  0  0  0  0  0  0
  -51.5317    1.4160  -17.3927 C   0  0  0  0  0  0  0  0  0  0  0  0
  -51.6820    1.5222  -16.1484 O   0  0  0  0  0  0  0  0  0  0  0  0
  -50.5867    0.5221  -17.8993 C   0  0  0  0  0  0  0  0  0  0  0  0
  -50.4097    0.4005  -19.2831 C   0  0  0  0  0  0  0  0  0  0  0  0
  -49.5018   -0.4698  -19.8284 N   0  0  0  0  0  0  0  0  0  0  0  0
  -49.3562   -0.5570  -21.1938 C   0  0  0  0  0  0  0  0  0  0  0  0
  -48.4278   -1.4456  -21.7640 C   0  0  0  0  0  0  0  0  0  0  0  0
  -48.2789   -1.5472  -23.1476 C   0  0  0  0  0  0  0  0  0  0  0  0
  -47.2798   -2.5124  -23.6888 C   0  0  0  0  0  0  0  0  0  0  0  0
  -52.9430    2.7997  -17.8400 H   0  0  0  0  0  0  0  0  0  0  0  0
  -48.6918   -1.3178  -18.9441 C   0  0  0  0  0  0  0  0  0  0  0  0
  -49.3821   -2.6587  -18.6880 C   0  0  0  0  0  0  0  0  0  0  0  0
  -50.6685   -2.6668  -19.2303 O   0  0  0  0  0  0  0  0  0  0  0  0
  -51.2073   -1.9879  -18.7947 H   0  0  0  0  0  0  0  0  0  0  0  0
  -49.4216   -3.0101  -17.1964 C   0  0  0  0  0  0  0  0  0  0  0  0
  -49.2781   -4.3927  -17.0483 O   0  0  0  0  0  0  0  0  0  0  0  0
  -48.4149   -4.6672  -17.3952 H   0  0  0  0  0  0  0  0  0  0  0  0
  -48.3588   -2.2755  -16.3666 C   0  0  0  0  0  0  0  0  0  0  0  0
  -47.4293   -3.1895  -15.8665 O   0  0  0  0  0  0  0  0  0  0  0  0
  -47.8796   -3.8254  -15.2888 H   0  0  0  0  0  0  0  0  0  0  0  0
  -48.9956   -1.5325  -15.2040 C   0  0  0  0  0  0  0  0  0  0  0  0
  -48.5175   -0.2232  -15.1609 O   0  0  0  0  0  0  0  0  0  0  0  0
  -47.5548   -0.2343  -15.0428 H   0  0  0  0  0  0  0  0  0  0  0  0
  1  2  1  0  0  0
  2  3  2  0  0  0
  3  4  1  0  0  0
  4  5  1  0  0  0
  5  6  2  0  0  0
  6  7  1  0  0  0
  6 13  1  0  0  0
  7  8  2  0  0  0
  7  9  1  0  0  0
  9 10  1  0  0  0
 10 11  2  0  0  0
 10 12  1  0  0  0
 12 13  2  0  0  0
 13 14  1  0  0  0
 14 15  1  0  0  0
 14 20  1  0  0  0
 15 16  1  0  0  0
 15  4  2  0  0  0
 16 17  2  0  0  0
 17 18  1  0  0  0
 17  2  1  0  0  0
 21 20  1  0  0  0
 21 24  1  0  0  0
 21 22  1  0  0  0
 24 27  1  0  0  0
 24 25  1  0  0  0
 27 30  1  0  0  0
 27 28  1  0  0  0
 30 31  1  0  0  0
  9 19  1  0  0  0
 31 32  1  0  0  0
 28 29  1  0  0  0
 25 26  1  0  0  0
 22 23  1  0  0  0
M  END
>  <minimizedAffinity>
-8.14865

>  <minimizedRMSD>
0.97848

$$$$
ZINC000019138008


 31 34  0  0  0  0  0  0  0  0999 V2000
  -48.8135   -1.0510  -18.2299 C   0  0  0  0  0  0  0  0  0  0  0  0
  -47.7299   -1.3900  -17.5327 C   0  0  0  0  0  0  0  0  0  0  0  0
  -47.0358   -0.5641  -16.6559 O   0  0  0  0  0  0  0  0  0  0  0  0
  -47.4029   -2.7625  -17.8186 C   0  0  0  0  0  0  0  0  0  0  0  0
  -46.4476   -3.4089  -17.3126 O   0  0  0  0  0  0  0  0  0  0  0  0
  -48.3323   -3.2921  -18.7508 N   0  0  0  0  0  0  0  0  0  0  0  0
  -49.2740   -2.2202  -19.0831 C   0  0  0  0  0  0  0  0  0  0  0  0
  -47.3150    0.3208  -16.5257 H   0  0  0  0  0  0  0  0  0  0  0  0
  -49.2022   -1.8847  -20.5465 C   0  0  0  0  0  0  0  0  0  0  0  0
  -50.3421   -2.0491  -21.3401 C   0  0  0  0  0  0  0  0  0  0  0  0
  -50.3020   -1.7403  -22.7019 C   0  0  0  0  0  0  0  0  0  0  0  0
  -49.1165   -1.2635  -23.2829 C   0  0  0  0  0  0  0  0  0  0  0  0
  -47.9760   -1.1003  -22.4896 C   0  0  0  0  0  0  0  0  0  0  0  0
  -48.0167   -1.4090  -21.1275 C   0  0  0  0  0  0  0  0  0  0  0  0
  -49.0456   -0.9242  -24.7387 C   0  0  0  0  0  0  0  0  0  0  0  0
  -50.3214   -1.3255  -25.4564 C   0  0  0  0  0  0  0  0  0  0  0  0
  -47.8468   -1.5831  -25.3963 C   0  0  0  0  0  0  0  0  0  0  0  0
  -48.4468   -4.6648  -19.1490 C   0  0  0  0  0  0  0  0  0  0  0  0
  -48.7375   -5.6702  -18.2990 N   0  0  0  0  0  0  0  0  0  0  0  0
  -48.7911   -6.8597  -18.8972 N   0  0  0  0  0  0  0  0  0  0  0  0
  -48.5461   -6.8272  -20.2291 C   0  0  0  0  0  0  0  0  0  0  0  0
  -48.2430   -5.2403  -20.7144 S   0  0  0  0  0  0  0  0  0  0  0  0
  -49.4513    0.2880  -18.1992 C   0  0  0  0  0  0  0  0  0  0  0  0
  -49.1120    1.1073  -17.3020 O   0  0  0  0  0  0  0  0  0  0  0  0
  -53.3672    1.9618  -22.0984 C   0  0  0  0  0  0  0  0  0  0  0  0
  -52.3628    1.5287  -21.0926 C   0  0  0  0  0  0  0  0  0  0  0  0
  -52.7787    0.9050  -19.9140 C   0  0  0  0  0  0  0  0  0  0  0  0
  -51.8334    0.4967  -18.9690 C   0  0  0  0  0  0  0  0  0  0  0  0
  -50.4635    0.7010  -19.1962 C   0  0  0  0  0  0  0  0  0  0  0  0
  -50.0581    1.3408  -20.3773 C   0  0  0  0  0  0  0  0  0  0  0  0
  -51.0028    1.7500  -21.3230 C   0  0  0  0  0  0  0  0  0  0  0  0
 25 26  1  0  0  0
 26 27  2  0  0  0
 27 28  1  0  0  0
 28 29  2  0  0  0
 29 23  1  0  0  0
 23 24  2  0  0  0
 23  1  1  0  0  0
  1  2  2  0  0  0
  2  3  1  0  0  0
  2  4  1  0  0  0
  4  5  2  0  0  0
  4  6  1  0  0  0
  6 18  1  0  0  0
 18 19  2  0  0  0
 19 20  1  0  0  0
 20 21  2  0  0  0
 21 22  1  0  0  0
  6  7  1  0  0  0
  7  9  1  0  0  0
  9 10  2  0  0  0
 10 11  1  0  0  0
 11 12  2  0  0  0
 12 15  1  0  0  0
 15 16  1  0  0  0
 15 17  1  0  0  0
 12 13  1  0  0  0
 13 14  2  0  0  0
 29 30  1  0  0  0
 30 31  2  0  0  0
 31 26  1  0  0  0
  7  1  1  0  0  0
 14  9  1  0  0  0
 22 18  1  0  0  0
  3  8  1  0  0  0
M  END
>  <minimizedAffinity>
-8.14267

>  <minimizedRMSD>
3.77205

$$$$
ZINC000670444915


 32 35  0  0  0  0  0  0  0  0999 V2000
  -49.7381   -2.5993  -25.7077 N   0  0  0  0  0  0  0  0  0  0  0  0
  -51.1441   -2.3851  -25.5543 C   0  0  0  0  0  0  0  0  0  0  0  0
  -51.9363   -2.6561  -26.4957 O   0  0  0  0  0  0  0  0  0  0  0  0
  -49.1317   -2.3400  -24.9768 H   0  0  0  0  0  0  0  0  0  0  0  0
  -51.6909   -1.8798  -24.2601 C   0  0  0  0  0  0  0  0  0  0  0  0
  -51.3954   -2.8780  -23.1333 C   0  0  0  0  0  0  0  0  0  0  0  0
  -50.6431   -2.0685  -22.1575 C   0  0  0  0  0  0  0  0  0  0  0  0
  -50.1788   -2.5248  -21.0797 O   0  0  0  0  0  0  0  0  0  0  0  0
  -50.4742   -0.7282  -22.5675 N   0  0  0  0  0  0  0  0  0  0  0  0
  -51.0433   -0.5361  -23.8841 C   0  0  0  0  0  0  0  0  0  0  0  0
  -49.6741    0.2725  -21.8783 C   0  0  0  0  0  0  0  0  0  0  0  0
  -50.4313    0.8422  -20.7269 C   0  0  0  0  0  0  0  0  0  0  0  0
  -51.5917    1.5886  -20.9455 C   0  0  0  0  0  0  0  0  0  0  0  0
  -52.3037    2.1006  -19.8593 C   0  0  0  0  0  0  0  0  0  0  0  0
  -51.8463    1.8468  -18.5647 C   0  0  0  0  0  0  0  0  0  0  0  0
  -50.7184    1.1106  -18.3714 N   0  0  0  0  0  0  0  0  0  0  0  0
  -50.0087    0.6064  -19.4167 C   0  0  0  0  0  0  0  0  0  0  0  0
  -49.1797   -3.1899  -26.9143 C   0  0  0  0  0  0  0  0  0  0  0  0
  -47.9339   -3.9911  -26.5730 C   0  0  0  0  0  0  0  0  0  0  0  0
  -47.0517   -4.2226  -18.9972 C   0  0  0  0  0  0  0  0  0  0  0  0
  -47.2954   -4.3287  -20.4618 C   0  0  0  0  0  0  0  0  0  0  0  0
  -46.5981   -3.3063  -21.6156 S   0  0  0  0  0  0  0  0  0  0  0  0
  -47.3535   -4.0528  -22.9126 C   0  0  0  0  0  0  0  0  0  0  0  0
  -47.2548   -3.7047  -24.2164 N   0  0  0  0  0  0  0  0  0  0  0  0
  -47.9633   -4.4111  -25.1424 C   0  0  0  0  0  0  0  0  0  0  0  0
  -48.7680   -5.4446  -24.7520 N   0  0  0  0  0  0  0  0  0  0  0  0
  -48.8788   -5.8077  -23.4422 C   0  0  0  0  0  0  0  0  0  0  0  0
  -49.7033   -6.8676  -23.0870 O   0  0  0  0  0  0  0  0  0  0  0  0
  -48.1536   -5.0938  -22.4825 C   0  0  0  0  0  0  0  0  0  0  0  0
  -48.1251   -5.2629  -21.0880 C   0  0  0  0  0  0  0  0  0  0  0  0
  -48.8980   -6.3021  -20.3447 C   0  0  0  0  0  0  0  0  0  0  0  0
  -50.1799   -7.3319  -23.7468 H   0  0  0  0  0  0  0  0  0  0  0  0
 20 21  1  0  0  0
 21 22  1  0  0  0
 22 23  1  0  0  0
 23 24  2  0  0  0
 24 25  1  0  0  0
 25 19  1  0  0  0
 19 18  1  0  0  0
 18  1  1  0  0  0
  1  2  1  0  0  0
  2  3  2  0  0  0
  5  2  1  0  0  0
  5  6  1  0  0  0
  6  7  1  0  0  0
  7  8  2  0  0  0
  7  9  1  0  0  0
  9 11  1  0  0  0
 11 12  1  0  0  0
 12 13  2  0  0  0
 13 14  1  0  0  0
 14 15  2  0  0  0
 15 16  1  0  0  0
 16 17  2  0  0  0
  9 10  1  0  0  0
 25 26  2  0  0  0
 26 27  1  0  0  0
 27 28  1  0  0  0
 27 29  2  0  0  0
 29 30  1  0  0  0
 30 31  1  0  0  0
 30 21  2  0  0  0
 29 23  1  0  0  0
 10  5  1  0  0  0
 17 12  1  0  0  0
  1  4  1  0  0  0
 28 32  1  0  0  0
M  END
>  <minimizedAffinity>
-8.13802

>  <minimizedRMSD>
7.45198

$$$$
ZINC000015841380 ZINC15841380 ChemDiv-D468-2065 MCULE-3603103277 MolPort-004-901-220 PubChem-20897503


 26 29  0  0  0  0  0  0  0  0999 V2000
  -45.9862   -1.2844  -21.4917 C   0  0  0  0  0  0  0  0  0  0  0  0
  -47.3661   -0.9908  -21.9752 C   0  0  0  0  0  0  0  0  0  0  0  0
  -47.8358   -1.4886  -23.2057 C   0  0  0  0  0  0  0  0  0  0  0  0
  -46.9757   -2.3325  -24.0844 C   0  0  0  0  0  0  0  0  0  0  0  0
  -49.1366   -1.1926  -23.6254 C   0  0  0  0  0  0  0  0  0  0  0  0
  -49.9752   -0.4036  -22.8274 C   0  0  0  0  0  0  0  0  0  0  0  0
  -51.2832   -0.0875  -23.2146 C   0  0  0  0  0  0  0  0  0  0  0  0
  -51.7570   -0.5013  -24.3067 O   0  0  0  0  0  0  0  0  0  0  0  0
  -52.0717    0.6972  -22.3749 C   0  0  0  0  0  0  0  0  0  0  0  0
  -51.5394    1.1512  -21.1608 C   0  0  0  0  0  0  0  0  0  0  0  0
  -50.2870    0.8425  -20.8272 O   0  0  0  0  0  0  0  0  0  0  0  0
  -49.5015    0.0944  -21.5950 C   0  0  0  0  0  0  0  0  0  0  0  0
  -48.2019   -0.2024  -21.1782 C   0  0  0  0  0  0  0  0  0  0  0  0
  -52.3580    1.9849  -20.2584 C   0  0  0  0  0  0  0  0  0  0  0  0
  -53.4081    2.5260  -20.6963 O   0  0  0  0  0  0  0  0  0  0  0  0
  -51.9584    2.2527  -18.9072 N   0  0  0  0  0  0  0  0  0  0  0  0
  -52.1870    3.1376  -18.5413 H   0  0  0  0  0  0  0  0  0  0  0  0
  -51.2576    1.3525  -18.0402 C   0  0  0  0  0  0  0  0  0  0  0  0
  -51.0562    0.0062  -18.3951 C   0  0  0  0  0  0  0  0  0  0  0  0
  -50.3904   -0.8427  -17.5134 C   0  0  0  0  0  0  0  0  0  0  0  0
  -50.1460   -2.1463  -17.7935 N   0  0  0  0  0  0  0  0  0  0  0  0
  -49.3559   -2.5921  -16.4094 S   0  0  0  0  0  0  0  0  0  0  0  0
  -49.2932   -1.2416  -15.4545 N   0  0  0  0  0  0  0  0  0  0  0  0
  -49.9329   -0.3570  -16.2582 C   0  0  0  0  0  0  0  0  0  0  0  0
  -50.1515    0.9710  -15.8960 C   0  0  0  0  0  0  0  0  0  0  0  0
  -50.8186    1.8196  -16.7897 C   0  0  0  0  0  0  0  0  0  0  0  0
  1  2  1  0  0  0
  2  3  2  0  0  0
  3  4  1  0  0  0
  3  5  1  0  0  0
  5  6  2  0  0  0
  6  7  1  0  0  0
  7  8  2  0  0  0
  7  9  1  0  0  0
  9 10  2  0  0  0
 10 11  1  0  0  0
 10 14  1  0  0  0
 11 12  1  0  0  0
 12 13  2  0  0  0
 12  6  1  0  0  0
 13  2  1  0  0  0
 14 15  2  0  0  0
 14 16  1  0  0  0
 16 18  1  0  0  0
 18 19  2  0  0  0
 19 20  1  0  0  0
 20 21  2  0  0  0
 21 22  1  0  0  0
 22 23  1  0  0  0
 23 24  2  0  0  0
 24 25  1  0  0  0
 24 20  1  0  0  0
 25 26  2  0  0  0
 26 18  1  0  0  0
 16 17  1  0  0  0
M  END
>  <minimizedAffinity>
-8.13651

>  <minimizedRMSD>
0.60679

$$$$
ZINC000067291103 ZINC67291103 MCULE-7927403924 MolPort-019-718-401 PubChem-51366855


 35 39  0  0  0  0  0  0  0  0999 V2000
  -50.4544    0.0344  -22.5335 C   0  0  0  0  0  0  0  0  0  0  0  0
  -51.1767   -0.6137  -23.4845 N   0  0  0  0  0  0  0  0  0  0  0  0
  -50.7560   -1.7879  -24.0115 C   0  0  0  0  0  0  0  0  0  0  0  0
  -51.5225   -2.4334  -24.9861 C   0  0  0  0  0  0  0  0  0  0  0  0
  -51.0878   -3.6474  -25.5268 C   0  0  0  0  0  0  0  0  0  0  0  0
  -49.8868   -4.2180  -25.0938 C   0  0  0  0  0  0  0  0  0  0  0  0
  -49.1167   -3.5759  -24.1193 C   0  0  0  0  0  0  0  0  0  0  0  0
  -49.5475   -2.3578  -23.5730 C   0  0  0  0  0  0  0  0  0  0  0  0
  -48.8055   -1.6781  -22.5980 C   0  0  0  0  0  0  0  0  0  0  0  0
  -47.7118   -2.1625  -22.1904 O   0  0  0  0  0  0  0  0  0  0  0  0
  -49.2652   -0.4905  -22.0925 N   0  0  0  0  0  0  0  0  0  0  0  0
  -51.1098    1.5731  -21.8761 S   0  0  0  0  0  0  0  0  0  0  0  0
  -51.9874    0.7034  -20.5436 C   0  0  0  0  0  0  0  0  0  0  0  0
  -51.2390    1.2466  -18.2031 N   0  0  0  0  0  0  0  0  0  0  0  0
  -52.0595    1.5633  -19.3339 C   0  0  0  0  0  0  0  0  0  0  0  0
  -52.8291    2.5606  -19.3265 O   0  0  0  0  0  0  0  0  0  0  0  0
  -50.6599    0.4550  -18.2874 H   0  0  0  0  0  0  0  0  0  0  0  0
  -50.8992    3.9893  -13.1854 C   0  0  0  0  0  0  0  0  0  0  0  0
  -51.0010    3.2957  -14.4988 C   0  0  0  0  0  0  0  0  0  0  0  0
  -50.4118    2.0384  -14.6588 C   0  0  0  0  0  0  0  0  0  0  0  0
  -50.4971    1.3748  -15.8857 C   0  0  0  0  0  0  0  0  0  0  0  0
  -51.1718    1.9602  -16.9619 C   0  0  0  0  0  0  0  0  0  0  0  0
  -51.7607    3.2231  -16.7982 C   0  0  0  0  0  0  0  0  0  0  0  0
  -51.6765    3.8909  -15.5730 C   0  0  0  0  0  0  0  0  0  0  0  0
  -52.2534    5.1111  -15.4373 F   0  0  0  0  0  0  0  0  0  0  0  0
  -48.4543    0.2233  -21.1009 C   0  0  0  0  0  0  0  0  0  0  0  0
  -48.5550   -0.3960  -19.7410 C   0  0  0  0  0  0  0  0  0  0  0  0
  -47.7675    0.1331  -18.6945 C   0  0  0  0  0  0  0  0  0  0  0  0
  -47.8050   -0.4364  -17.4094 C   0  0  0  0  0  0  0  0  0  0  0  0
  -48.6395   -1.5335  -17.2179 C   0  0  0  0  0  0  0  0  0  0  0  0
  -48.8547   -2.2562  -16.0618 O   0  0  0  0  0  0  0  0  0  0  0  0
  -49.7960   -3.2975  -16.3578 C   0  0  0  0  0  0  0  0  0  0  0  0
  -50.1078   -3.1327  -17.7485 O   0  0  0  0  0  0  0  0  0  0  0  0
  -49.3871   -2.0553  -18.2233 C   0  0  0  0  0  0  0  0  0  0  0  0
  -49.3704   -1.5238  -19.5099 C   0  0  0  0  0  0  0  0  0  0  0  0
 18 19  1  0  0  0
 19 20  2  0  0  0
 20 21  1  0  0  0
 21 22  2  0  0  0
 22 14  1  0  0  0
 22 23  1  0  0  0
 14 15  1  0  0  0
 15 16  2  0  0  0
 15 13  1  0  0  0
 13 12  1  0  0  0
 12  1  1  0  0  0
  1  2  2  0  0  0
  2  3  1  0  0  0
  3  4  2  0  0  0
  4  5  1  0  0  0
  5  6  2  0  0  0
  6  7  1  0  0  0
  7  8  2  0  0  0
  8  9  1  0  0  0
  8  3  1  0  0  0
  9 10  2  0  0  0
  9 11  1  0  0  0
 11 26  1  0  0  0
 11  1  1  0  0  0
 26 27  1  0  0  0
 27 28  2  0  0  0
 28 29  1  0  0  0
 29 30  2  0  0  0
 30 31  1  0  0  0
 31 32  1  0  0  0
 32 33  1  0  0  0
 33 34  1  0  0  0
 34 35  2  0  0  0
 34 30  1  0  0  0
 35 27  1  0  0  0
 23 24  2  0  0  0
 24 25  1  0  0  0
 24 19  1  0  0  0
 14 17  1  0  0  0
M  END
>  <minimizedAffinity>
-8.12482

>  <minimizedRMSD>
2.12512

$$$$
ZINC000217755306


 41 45  0  0  0  0  0  0  0  0999 V2000
  -50.3522   -0.4722  -20.8625 C   0  0  0  0  0  0  0  0  0  0  0  0
  -50.5559   -1.1627  -22.1887 C   0  0  0  0  0  0  0  0  0  0  0  0
  -50.7763   -2.5444  -22.2066 C   0  0  0  0  0  0  0  0  0  0  0  0
  -50.8247   -3.2683  -21.0206 O   0  0  0  0  0  0  0  0  0  0  0  0
  -50.9447   -3.1911  -23.3855 N   0  0  0  0  0  0  0  0  0  0  0  0
  -50.9051   -2.5271  -24.5668 C   0  0  0  0  0  0  0  0  0  0  0  0
  -51.0829   -3.2383  -25.7561 C   0  0  0  0  0  0  0  0  0  0  0  0
  -51.0441   -2.5608  -26.9730 C   0  0  0  0  0  0  0  0  0  0  0  0
  -50.8291   -1.1847  -26.9925 C   0  0  0  0  0  0  0  0  0  0  0  0
  -50.6551   -0.5030  -25.7869 C   0  0  0  0  0  0  0  0  0  0  0  0
  -50.6928   -1.1677  -24.5926 N   0  0  0  0  0  0  0  0  0  0  0  0
  -50.5199   -0.4790  -23.4213 C   0  0  0  0  0  0  0  0  0  0  0  0
  -50.3340    0.7706  -23.4418 O   0  0  0  0  0  0  0  0  0  0  0  0
  -50.7095   -2.8311  -20.1999 H   0  0  0  0  0  0  0  0  0  0  0  0
  -48.9505   -0.6211  -20.3240 C   0  0  0  0  0  0  0  0  0  0  0  0
  -47.8547   -0.1867  -21.0811 C   0  0  0  0  0  0  0  0  0  0  0  0
  -46.5611   -0.3173  -20.5749 C   0  0  0  0  0  0  0  0  0  0  0  0
  -46.3585   -0.8620  -19.3466 N   0  0  0  0  0  0  0  0  0  0  0  0
  -47.3942   -1.2918  -18.5790 C   0  0  0  0  0  0  0  0  0  0  0  0
  -47.1444   -1.8413  -17.3183 C   0  0  0  0  0  0  0  0  0  0  0  0
  -48.2058   -2.2801  -16.5221 C   0  0  0  0  0  0  0  0  0  0  0  0
  -49.5207   -2.1706  -16.9827 C   0  0  0  0  0  0  0  0  0  0  0  0
  -49.7795   -1.6229  -18.2419 C   0  0  0  0  0  0  0  0  0  0  0  0
  -48.7229   -1.1803  -19.0525 C   0  0  0  0  0  0  0  0  0  0  0  0
  -50.8680    0.9651  -20.8438 C   0  0  0  0  0  0  0  0  0  0  0  0
  -53.0020    1.0036  -19.7895 O   0  0  0  0  0  0  0  0  0  0  0  0
  -51.7608    1.1858  -19.6714 C   0  0  0  0  0  0  0  0  0  0  0  0
  -51.1953    1.5567  -18.4122 N   0  0  0  0  0  0  0  0  0  0  0  0
  -50.2208    1.6826  -18.3508 H   0  0  0  0  0  0  0  0  0  0  0  0
  -52.0015    1.7555  -17.2177 C   0  0  0  0  0  0  0  0  0  0  0  0
  -51.7980    3.1623  -16.6794 C   0  0  0  0  0  0  0  0  0  0  0  0
  -51.0992    3.1232  -15.3637 C   0  0  0  0  0  0  0  0  0  0  0  0
  -50.6865    1.9036  -14.8123 C   0  0  0  0  0  0  0  0  0  0  0  0
  -50.0180    1.8804  -13.5849 C   0  0  0  0  0  0  0  0  0  0  0  0
  -49.7558    3.0748  -12.9067 C   0  0  0  0  0  0  0  0  0  0  0  0
  -49.0920    3.0421  -11.6869 O   0  0  0  0  0  0  0  0  0  0  0  0
  -50.1618    4.2965  -13.4604 C   0  0  0  0  0  0  0  0  0  0  0  0
  -49.9035    5.4892  -12.7966 O   0  0  0  0  0  0  0  0  0  0  0  0
  -50.8302    4.3180  -14.6885 C   0  0  0  0  0  0  0  0  0  0  0  0
  -48.8230    2.2222  -11.3217 H   0  0  0  0  0  0  0  0  0  0  0  0
  -49.4560    5.4799  -11.9735 H   0  0  0  0  0  0  0  0  0  0  0  0
 26 27  2  0  0  0
 27 25  1  0  0  0
  1 25  1  0  0  0
  1 15  1  0  0  0
 15 16  2  0  0  0
 16 17  1  0  0  0
 17 18  2  0  0  0
 18 19  1  0  0  0
 19 20  2  0  0  0
 20 21  1  0  0  0
 21 22  2  0  0  0
 22 23  1  0  0  0
 23 24  2  0  0  0
  1  2  1  0  0  0
  2  3  2  0  0  0
  3  4  1  0  0  0
  3  5  1  0  0  0
  5  6  2  0  0  0
  6  7  1  0  0  0
  7  8  2  0  0  0
  8  9  1  0  0  0
  9 10  2  0  0  0
 10 11  1  0  0  0
 11 12  1  0  0  0
 12 13  2  0  0  0
 27 28  1  0  0  0
 28 30  1  0  0  0
 30 31  1  0  0  0
 31 32  1  0  0  0
 32 33  2  0  0  0
 33 34  1  0  0  0
 34 35  2  0  0  0
 35 36  1  0  0  0
 35 37  1  0  0  0
 37 38  1  0  0  0
 37 39  2  0  0  0
 24 15  1  0  0  0
 12  2  1  0  0  0
 39 32  1  0  0  0
 24 19  1  0  0  0
 11  6  1  0  0  0
  4 14  1  0  0  0
 28 29  1  0  0  0
 36 40  1  0  0  0
 38 41  1  0  0  0
M  END
>  <minimizedAffinity>
-8.12138

>  <minimizedRMSD>
4.18103

$$$$
ZINC000005372517 ZINC05372517 PubChem-92261927


 32 34  0  0  0  0  0  0  0  0999 V2000
  -48.9573   -0.7569  -25.5445 C   0  0  0  0  0  0  0  0  0  0  0  0
  -49.0919   -0.7086  -24.0601 C   0  0  0  0  0  0  0  0  0  0  0  0
  -50.0116    0.1797  -23.4987 C   0  0  0  0  0  0  0  0  0  0  0  0
  -50.1702    0.2572  -22.1132 C   0  0  0  0  0  0  0  0  0  0  0  0
  -51.0933    1.1547  -21.5868 C   0  0  0  0  0  0  0  0  0  0  0  0
  -51.2613    1.2470  -20.2103 C   0  0  0  0  0  0  0  0  0  0  0  0
  -52.1705    2.1335  -19.6212 C   0  0  0  0  0  0  0  0  0  0  0  0
  -52.8852    2.8903  -20.3317 O   0  0  0  0  0  0  0  0  0  0  0  0
  -52.2855    2.1819  -18.2669 N   0  0  0  0  0  0  0  0  0  0  0  0
  -51.5463    1.3966  -17.4363 C   0  0  0  0  0  0  0  0  0  0  0  0
  -51.6987    1.4898  -16.1911 O   0  0  0  0  0  0  0  0  0  0  0  0
  -50.6200    0.4876  -17.9511 C   0  0  0  0  0  0  0  0  0  0  0  0
  -50.4445    0.3752  -19.3353 C   0  0  0  0  0  0  0  0  0  0  0  0
  -49.5491   -0.5024  -19.8901 N   0  0  0  0  0  0  0  0  0  0  0  0
  -49.3977   -0.5691  -21.2565 C   0  0  0  0  0  0  0  0  0  0  0  0
  -48.4739   -1.4561  -21.8388 C   0  0  0  0  0  0  0  0  0  0  0  0
  -48.3175   -1.5313  -23.2245 C   0  0  0  0  0  0  0  0  0  0  0  0
  -47.3234   -2.4938  -23.7805 C   0  0  0  0  0  0  0  0  0  0  0  0
  -52.9305    2.8114  -17.8707 H   0  0  0  0  0  0  0  0  0  0  0  0
  -48.7545   -1.3777  -19.0196 C   0  0  0  0  0  0  0  0  0  0  0  0
  -49.3020   -2.8010  -19.0461 C   0  0  0  0  0  0  0  0  0  0  0  0
  -50.6323   -2.7938  -18.6218 O   0  0  0  0  0  0  0  0  0  0  0  0
  -50.6807   -2.4519  -17.7153 H   0  0  0  0  0  0  0  0  0  0  0  0
  -48.4706   -3.7072  -18.1420 C   0  0  0  0  0  0  0  0  0  0  0  0
  -49.2744   -4.2512  -17.1353 O   0  0  0  0  0  0  0  0  0  0  0  0
  -49.9747   -4.7895  -17.5362 H   0  0  0  0  0  0  0  0  0  0  0  0
  -47.8038   -4.8263  -18.9466 C   0  0  0  0  0  0  0  0  0  0  0  0
  -48.7138   -5.8532  -19.2071 O   0  0  0  0  0  0  0  0  0  0  0  0
  -49.0174   -6.2364  -18.3693 H   0  0  0  0  0  0  0  0  0  0  0  0
  -46.6008   -5.3868  -18.2073 C   0  0  0  0  0  0  0  0  0  0  0  0
  -46.2424   -4.5329  -17.1638 O   0  0  0  0  0  0  0  0  0  0  0  0
  -46.0148   -3.6611  -17.5230 H   0  0  0  0  0  0  0  0  0  0  0  0
  1  2  1  0  0  0
  2  3  2  0  0  0
  3  4  1  0  0  0
  4  5  1  0  0  0
  5  6  2  0  0  0
  6  7  1  0  0  0
  6 13  1  0  0  0
  7  8  2  0  0  0
  7  9  1  0  0  0
  9 10  1  0  0  0
 10 11  2  0  0  0
 10 12  1  0  0  0
 12 13  2  0  0  0
 13 14  1  0  0  0
 14 15  1  0  0  0
 14 20  1  0  0  0
 15 16  1  0  0  0
 15  4  2  0  0  0
 16 17  2  0  0  0
 17 18  1  0  0  0
 17  2  1  0  0  0
 21 20  1  0  0  0
 21 24  1  0  0  0
 21 22  1  0  0  0
 24 27  1  0  0  0
 24 25  1  0  0  0
 27 30  1  0  0  0
 27 28  1  0  0  0
 30 31  1  0  0  0
  9 19  1  0  0  0
 31 32  1  0  0  0
 28 29  1  0  0  0
 25 26  1  0  0  0
 22 23  1  0  0  0
M  END
>  <minimizedAffinity>
-8.11393

>  <minimizedRMSD>
0.99861

$$$$
ZINC000012801021 ZINC12801021 MolPort-005-751-258 PubChem-25522332


 30 32  0  0  0  0  0  0  0  0999 V2000
  -52.2127    2.6194  -18.4809 N   0  0  0  0  0  0  0  0  0  0  0  0
  -52.2672    2.0875  -19.8127 C   0  0  0  0  0  0  0  0  0  0  0  0
  -53.3518    2.1492  -20.4466 O   0  0  0  0  0  0  0  0  0  0  0  0
  -52.7292    3.4393  -18.3069 H   0  0  0  0  0  0  0  0  0  0  0  0
  -50.0946    0.9655  -15.1855 C   0  0  0  0  0  0  0  0  0  0  0  0
  -50.7001    2.2280  -15.0855 C   0  0  0  0  0  0  0  0  0  0  0  0
  -51.3905    2.7770  -16.1686 C   0  0  0  0  0  0  0  0  0  0  0  0
  -52.0194    4.1194  -16.0151 C   0  0  0  0  0  0  0  0  0  0  0  0
  -51.4762    2.0688  -17.3782 C   0  0  0  0  0  0  0  0  0  0  0  0
  -50.8883    0.7994  -17.4693 C   0  0  0  0  0  0  0  0  0  0  0  0
  -50.1903    0.2463  -16.3851 C   0  0  0  0  0  0  0  0  0  0  0  0
  -49.8979    0.4217  -12.7779 C   0  0  0  0  0  0  0  0  0  0  0  0
  -49.3969    0.4086  -14.1079 O   0  0  0  0  0  0  0  0  0  0  0  0
  -49.5861   -1.0121  -16.4794 O   0  0  0  0  0  0  0  0  0  0  0  0
  -49.6615   -1.8151  -17.6497 C   0  0  0  0  0  0  0  0  0  0  0  0
  -51.0905    1.5240  -20.4936 C   0  0  0  0  0  0  0  0  0  0  0  0
  -51.0753    0.3002  -21.0117 C   0  0  0  0  0  0  0  0  0  0  0  0
  -49.9115   -0.2682  -21.7092 C   0  0  0  0  0  0  0  0  0  0  0  0
  -49.8331   -0.7955  -22.9910 C   0  0  0  0  0  0  0  0  0  0  0  0
  -50.9681   -0.8873  -23.9603 C   0  0  0  0  0  0  0  0  0  0  0  0
  -48.5719   -1.2229  -23.2326 N   0  0  0  0  0  0  0  0  0  0  0  0
  -47.8697   -0.9618  -22.1037 C   0  0  0  0  0  0  0  0  0  0  0  0
  -46.4223   -1.2596  -21.9010 C   0  0  0  0  0  0  0  0  0  0  0  0
  -48.6599   -0.3712  -21.1349 C   0  0  0  0  0  0  0  0  0  0  0  0
  -48.0665   -1.8337  -24.4405 C   0  0  0  0  0  0  0  0  0  0  0  0
  -47.7007   -1.1363  -25.5342 N   0  0  0  0  0  0  0  0  0  0  0  0
  -47.3049   -2.0060  -26.4129 O   0  0  0  0  0  0  0  0  0  0  0  0
  -47.3994   -3.2224  -25.9366 C   0  0  0  0  0  0  0  0  0  0  0  0
  -47.0257   -4.4474  -26.6910 C   0  0  0  0  0  0  0  0  0  0  0  0
  -47.8915   -3.1942  -24.6476 C   0  0  0  0  0  0  0  0  0  0  0  0
 12 13  1  0  0  0
 13  5  1  0  0  0
  5  6  2  0  0  0
  6  7  1  0  0  0
  7  8  1  0  0  0
  7  9  2  0  0  0
  9  1  1  0  0  0
  9 10  1  0  0  0
  1  2  1  0  0  0
  2  3  2  0  0  0
  2 16  1  0  0  0
 16 17  2  0  0  0
 17 18  1  0  0  0
 18 19  2  0  0  0
 19 20  1  0  0  0
 19 21  1  0  0  0
 21 22  1  0  0  0
 21 25  1  0  0  0
 22 23  1  0  0  0
 22 24  2  0  0  0
 24 18  1  0  0  0
 25 26  2  0  0  0
 26 27  1  0  0  0
 27 28  1  0  0  0
 28 29  1  0  0  0
 28 30  2  0  0  0
 30 25  1  0  0  0
 10 11  2  0  0  0
 11 14  1  0  0  0
 11  5  1  0  0  0
 14 15  1  0  0  0
  1  4  1  0  0  0
M  END
>  <minimizedAffinity>
-8.11261

>  <minimizedRMSD>
1.52019

$$$$
ZINC000032678714 ZINC32678714 CSC028068244 MCULE-2237337451 MolPort-005-701-896 PubChem-39911757


 31 34  0  0  0  0  0  0  0  0999 V2000
  -50.3345    0.1911  -21.0915 C   0  0  0  0  0  0  0  0  0  0  0  0
  -49.3797    0.8705  -20.3203 C   0  0  0  0  0  0  0  0  0  0  0  0
  -48.0188    0.6063  -20.4909 C   0  0  0  0  0  0  0  0  0  0  0  0
  -47.6038   -0.3314  -21.4396 C   0  0  0  0  0  0  0  0  0  0  0  0
  -48.5467   -1.0074  -22.2257 C   0  0  0  0  0  0  0  0  0  0  0  0
  -49.9106   -0.7362  -22.0486 C   0  0  0  0  0  0  0  0  0  0  0  0
  -48.1095   -1.9919  -23.2292 C   0  0  0  0  0  0  0  0  0  0  0  0
  -48.0720   -1.7192  -24.5619 N   0  0  0  0  0  0  0  0  0  0  0  0
  -47.6257   -2.8703  -25.0827 C   0  0  0  0  0  0  0  0  0  0  0  0
  -47.3934   -3.1630  -26.4243 C   0  0  0  0  0  0  0  0  0  0  0  0
  -46.9208   -4.4526  -26.7319 C   0  0  0  0  0  0  0  0  0  0  0  0
  -46.6972   -5.3987  -25.7063 C   0  0  0  0  0  0  0  0  0  0  0  0
  -46.9435   -5.0664  -24.3610 C   0  0  0  0  0  0  0  0  0  0  0  0
  -47.4104   -3.7816  -24.0949 C   0  0  0  0  0  0  0  0  0  0  0  0
  -47.7100   -3.2508  -22.9015 N   0  0  0  0  0  0  0  0  0  0  0  0
  -47.6549   -3.6671  -22.0111 H   0  0  0  0  0  0  0  0  0  0  0  0
  -52.3275    1.3696  -20.0194 C   0  0  0  0  0  0  0  0  0  0  0  0
  -53.3453    2.0220  -20.3698 O   0  0  0  0  0  0  0  0  0  0  0  0
  -51.7356    0.4584  -20.9549 N   0  0  0  0  0  0  0  0  0  0  0  0
  -52.3457   -0.0265  -21.5564 H   0  0  0  0  0  0  0  0  0  0  0  0
  -50.8754    1.2047  -16.6613 C   0  0  0  0  0  0  0  0  0  0  0  0
  -51.3826    2.4954  -16.7644 C   0  0  0  0  0  0  0  0  0  0  0  0
  -51.3473    3.5499  -15.7126 C   0  0  0  0  0  0  0  0  0  0  0  0
  -51.9508    2.7032  -17.9683 N   0  0  0  0  0  0  0  0  0  0  0  0
  -51.7981    1.5534  -18.6544 C   0  0  0  0  0  0  0  0  0  0  0  0
  -51.1512    0.6034  -17.8787 C   0  0  0  0  0  0  0  0  0  0  0  0
  -50.9065   -0.8245  -18.2413 C   0  0  0  0  0  0  0  0  0  0  0  0
  -52.3884    3.5272  -18.2827 H   0  0  0  0  0  0  0  0  0  0  0  0
  -50.9264    0.3092  -14.2261 C   0  0  0  0  0  0  0  0  0  0  0  0
  -50.2012    0.5780  -15.4990 C   0  0  0  0  0  0  0  0  0  0  0  0
  -48.9849    0.2604  -15.5701 O   0  0  0  0  0  0  0  0  0  0  0  0
 29 30  1  0  0  0
 30 31  2  0  0  0
 30 21  1  0  0  0
 21 22  2  0  0  0
 22 23  1  0  0  0
 22 24  1  0  0  0
 24 25  1  0  0  0
 25 17  1  0  0  0
 25 26  2  0  0  0
 17 18  2  0  0  0
 17 19  1  0  0  0
 19  1  1  0  0  0
  1  2  2  0  0  0
  2  3  1  0  0  0
  3  4  2  0  0  0
  4  5  1  0  0  0
  5  6  2  0  0  0
  5  7  1  0  0  0
  6  1  1  0  0  0
  7  8  2  0  0  0
  8  9  1  0  0  0
  9 10  2  0  0  0
 10 11  1  0  0  0
 11 12  2  0  0  0
 12 13  1  0  0  0
 13 14  2  0  0  0
 14 15  1  0  0  0
 14  9  1  0  0  0
 15  7  1  0  0  0
 26 27  1  0  0  0
 26 21  1  0  0  0
 24 28  1  0  0  0
 19 20  1  0  0  0
 15 16  1  0  0  0
M  END
>  <minimizedAffinity>
-8.11253

>  <minimizedRMSD>
2.04472

$$$$
ZINC000063474270 CSC027367595 MCULE-3459856010 MolPort-020-069-293


 31 35  0  0  0  0  0  0  0  0999 V2000
  -49.3521   -2.0186  -22.3840 C   0  0  0  0  0  0  0  0  0  0  0  0
  -48.9463   -2.6035  -23.5631 C   0  0  0  0  0  0  0  0  0  0  0  0
  -47.8906   -1.8630  -24.0254 C   0  0  0  0  0  0  0  0  0  0  0  0
  -47.2283   -2.1862  -25.2073 C   0  0  0  0  0  0  0  0  0  0  0  0
  -47.6822   -3.3103  -25.9212 C   0  0  0  0  0  0  0  0  0  0  0  0
  -48.7703   -4.0736  -25.4439 C   0  0  0  0  0  0  0  0  0  0  0  0
  -49.4189   -3.7230  -24.2461 C   0  0  0  0  0  0  0  0  0  0  0  0
  -47.6328   -0.8674  -23.2126 O   0  0  0  0  0  0  0  0  0  0  0  0
  -48.4994   -0.9223  -22.2152 C   0  0  0  0  0  0  0  0  0  0  0  0
  -48.4946    0.0529  -21.1078 C   0  0  0  0  0  0  0  0  0  0  0  0
  -49.7069    0.6675  -20.6383 N   0  0  0  0  0  0  0  0  0  0  0  0
  -49.9791    0.8341  -19.2272 C   0  0  0  0  0  0  0  0  0  0  0  0
  -51.2650    1.2286  -18.8138 C   0  0  0  0  0  0  0  0  0  0  0  0
  -51.5612    1.3585  -17.4539 C   0  0  0  0  0  0  0  0  0  0  0  0
  -50.5780    1.1042  -16.4951 C   0  0  0  0  0  0  0  0  0  0  0  0
  -49.2983    0.7124  -16.8942 C   0  0  0  0  0  0  0  0  0  0  0  0
  -49.0018    0.5729  -18.2525 C   0  0  0  0  0  0  0  0  0  0  0  0
  -52.2812    1.4714  -19.7856 N   0  0  0  0  0  0  0  0  0  0  0  0
  -51.9714    1.4483  -21.1785 C   0  0  0  0  0  0  0  0  0  0  0  0
  -52.8909    1.5739  -22.0274 O   0  0  0  0  0  0  0  0  0  0  0  0
  -50.5472    1.3458  -21.6318 C   0  0  0  0  0  0  0  0  0  0  0  0
  -47.3897    0.3753  -20.5942 O   0  0  0  0  0  0  0  0  0  0  0  0
  -53.2028    1.6563  -19.4930 H   0  0  0  0  0  0  0  0  0  0  0  0
  -50.4481   -2.4887  -21.4805 C   0  0  0  0  0  0  0  0  0  0  0  0
  -50.0983   -4.1545  -20.8383 S   0  0  0  0  0  0  0  0  0  0  0  0
  -47.5137   -2.6050  -16.1082 C   0  0  0  0  0  0  0  0  0  0  0  0
  -48.4339   -2.9140  -17.2331 C   0  0  0  0  0  0  0  0  0  0  0  0
  -47.9583   -3.5573  -18.7135 S   0  0  0  0  0  0  0  0  0  0  0  0
  -49.5543   -3.5440  -19.2490 C   0  0  0  0  0  0  0  0  0  0  0  0
  -50.3927   -3.0650  -18.3054 N   0  0  0  0  0  0  0  0  0  0  0  0
  -49.7682   -2.7123  -17.1834 N   0  0  0  0  0  0  0  0  0  0  0  0
 26 27  1  0  0  0
 27 28  1  0  0  0
 28 29  1  0  0  0
 29 25  1  0  0  0
 25 24  1  0  0  0
 24  1  1  0  0  0
  1  2  1  0  0  0
  2  3  1  0  0  0
  3  4  2  0  0  0
  4  5  1  0  0  0
  5  6  2  0  0  0
  6  7  1  0  0  0
  3  8  1  0  0  0
  8  9  1  0  0  0
  9 10  1  0  0  0
 10 11  1  0  0  0
 11 12  1  0  0  0
 12 13  1  0  0  0
 13 14  2  0  0  0
 14 15  1  0  0  0
 15 16  2  0  0  0
 16 17  1  0  0  0
 13 18  1  0  0  0
 18 19  1  0  0  0
 19 20  2  0  0  0
 19 21  1  0  0  0
 10 22  2  0  0  0
 29 30  2  0  0  0
 30 31  1  0  0  0
 31 27  2  0  0  0
  9  1  2  0  0  0
 21 11  1  0  0  0
  7  2  2  0  0  0
 17 12  2  0  0  0
 18 23  1  0  0  0
M  END
>  <minimizedAffinity>
-8.11179

>  <minimizedRMSD>
1.42121

$$$$
ZINC000096181382 ZINC96181382 PubChem-97457252


 25 27  0  0  0  0  0  0  0  0999 V2000
  -50.1383    0.3305  -21.1125 C   0  0  0  0  0  0  0  0  0  0  0  0
  -51.3153    0.1133  -20.1447 C   0  0  0  0  0  0  0  0  0  0  0  0
  -50.7679   -0.5447  -18.8724 C   0  0  0  0  0  0  0  0  0  0  0  0
  -49.3510   -0.7883  -19.2105 C   0  0  0  0  0  0  0  0  0  0  0  0
  -48.5305   -1.3342  -18.4269 O   0  0  0  0  0  0  0  0  0  0  0  0
  -48.9970   -0.3197  -20.4951 N   0  0  0  0  0  0  0  0  0  0  0  0
  -47.6287   -0.1730  -20.9639 C   0  0  0  0  0  0  0  0  0  0  0  0
  -51.2832   -1.8658  -26.3405 C   0  0  0  0  0  0  0  0  0  0  0  0
  -50.9907   -1.3092  -24.9942 C   0  0  0  0  0  0  0  0  0  0  0  0
  -51.3008   -2.0494  -23.8496 C   0  0  0  0  0  0  0  0  0  0  0  0
  -51.0255   -1.5257  -22.5832 C   0  0  0  0  0  0  0  0  0  0  0  0
  -50.4362   -0.2579  -22.4576 C   0  0  0  0  0  0  0  0  0  0  0  0
  -50.1310    0.4798  -23.6064 C   0  0  0  0  0  0  0  0  0  0  0  0
  -50.4067   -0.0448  -24.8727 C   0  0  0  0  0  0  0  0  0  0  0  0
  -52.0443    1.3911  -19.8505 C   0  0  0  0  0  0  0  0  0  0  0  0
  -52.6379    1.9733  -20.7946 O   0  0  0  0  0  0  0  0  0  0  0  0
  -52.0868    1.9732  -18.5423 N   0  0  0  0  0  0  0  0  0  0  0  0
  -52.5860    2.8136  -18.4249 H   0  0  0  0  0  0  0  0  0  0  0  0
  -51.4355    1.3951  -17.3769 C   0  0  0  0  0  0  0  0  0  0  0  0
  -51.3062    2.4230  -16.3100 C   0  0  0  0  0  0  0  0  0  0  0  0
  -51.9295    3.6669  -16.4577 C   0  0  0  0  0  0  0  0  0  0  0  0
  -51.8254    4.6261  -15.4455 C   0  0  0  0  0  0  0  0  0  0  0  0
  -51.1023    4.3403  -14.2831 C   0  0  0  0  0  0  0  0  0  0  0  0
  -50.4850    3.0947  -14.1317 C   0  0  0  0  0  0  0  0  0  0  0  0
  -50.5889    2.1352  -15.1437 C   0  0  0  0  0  0  0  0  0  0  0  0
  8  9  1  0  0  0
  9 10  2  0  0  0
 10 11  1  0  0  0
 11 12  2  0  0  0
 12 13  1  0  0  0
 13 14  2  0  0  0
 14  9  1  0  0  0
  1 12  1  0  0  0
  1  2  1  0  0  0
  2  3  1  0  0  0
  2 15  1  0  0  0
  3  4  1  0  0  0
  4  5  2  0  0  0
  4  6  1  0  0  0
  6  7  1  0  0  0
  6  1  1  0  0  0
 15 16  2  0  0  0
 15 17  1  0  0  0
 17 19  1  0  0  0
 19 20  1  0  0  0
 20 21  2  0  0  0
 21 22  1  0  0  0
 22 23  2  0  0  0
 23 24  1  0  0  0
 24 25  2  0  0  0
 25 20  1  0  0  0
 17 18  1  0  0  0
M  END
>  <minimizedAffinity>
-8.10199

>  <minimizedRMSD>
1.64842

$$$$
ZINC000096181382 ZINC96181382 PubChem-97457252


 25 27  0  0  0  0  0  0  0  0999 V2000
  -50.1384    0.3301  -21.1128 C   0  0  0  0  0  0  0  0  0  0  0  0
  -51.3156    0.1130  -20.1452 C   0  0  0  0  0  0  0  0  0  0  0  0
  -50.7682   -0.5451  -18.8728 C   0  0  0  0  0  0  0  0  0  0  0  0
  -49.3513   -0.7888  -19.2108 C   0  0  0  0  0  0  0  0  0  0  0  0
  -48.5309   -1.3350  -18.4273 O   0  0  0  0  0  0  0  0  0  0  0  0
  -48.9973   -0.3203  -20.4955 N   0  0  0  0  0  0  0  0  0  0  0  0
  -47.6290   -0.1735  -20.9640 C   0  0  0  0  0  0  0  0  0  0  0  0
  -51.2834   -1.8656  -26.3410 C   0  0  0  0  0  0  0  0  0  0  0  0
  -50.9908   -1.3091  -24.9947 C   0  0  0  0  0  0  0  0  0  0  0  0
  -51.3008   -2.0494  -23.8501 C   0  0  0  0  0  0  0  0  0  0  0  0
  -51.0255   -1.5259  -22.5837 C   0  0  0  0  0  0  0  0  0  0  0  0
  -50.4364   -0.2581  -22.4580 C   0  0  0  0  0  0  0  0  0  0  0  0
  -50.1311    0.4797  -23.6067 C   0  0  0  0  0  0  0  0  0  0  0  0
  -50.4069   -0.0447  -24.8730 C   0  0  0  0  0  0  0  0  0  0  0  0
  -52.0443    1.3909  -19.8509 C   0  0  0  0  0  0  0  0  0  0  0  0
  -52.6377    1.9734  -20.7950 O   0  0  0  0  0  0  0  0  0  0  0  0
  -52.0866    1.9730  -18.5427 N   0  0  0  0  0  0  0  0  0  0  0  0
  -52.5855    2.8136  -18.4255 H   0  0  0  0  0  0  0  0  0  0  0  0
  -51.4354    1.3950  -17.3773 C   0  0  0  0  0  0  0  0  0  0  0  0
  -51.3064    2.4227  -16.3103 C   0  0  0  0  0  0  0  0  0  0  0  0
  -50.5892    2.1350  -15.1441 C   0  0  0  0  0  0  0  0  0  0  0  0
  -50.4851    3.0944  -14.1321 C   0  0  0  0  0  0  0  0  0  0  0  0
  -51.1024    4.3400  -14.2834 C   0  0  0  0  0  0  0  0  0  0  0  0
  -51.8255    4.6259  -15.4458 C   0  0  0  0  0  0  0  0  0  0  0  0
  -51.9297    3.6667  -16.4579 C   0  0  0  0  0  0  0  0  0  0  0  0
  8  9  1  0  0  0
  9 10  2  0  0  0
 10 11  1  0  0  0
 11 12  2  0  0  0
 12 13  1  0  0  0
 13 14  2  0  0  0
 14  9  1  0  0  0
  1 12  1  0  0  0
  1  2  1  0  0  0
  2  3  1  0  0  0
  2 15  1  0  0  0
  3  4  1  0  0  0
  4  5  2  0  0  0
  4  6  1  0  0  0
  6  7  1  0  0  0
  6  1  1  0  0  0
 15 16  2  0  0  0
 15 17  1  0  0  0
 17 19  1  0  0  0
 19 20  1  0  0  0
 20 21  2  0  0  0
 21 22  1  0  0  0
 22 23  2  0  0  0
 23 24  1  0  0  0
 24 25  2  0  0  0
 25 20  1  0  0  0
 17 18  1  0  0  0
M  END
>  <minimizedAffinity>
-8.10187

>  <minimizedRMSD>
1.64846

$$$$
ZINC000100138715


 33 37  0  0  0  0  0  0  0  0999 V2000
  -46.6866   -3.7867  -19.0641 C   0  0  0  0  0  0  0  0  0  0  0  0
  -45.3056   -3.3056  -18.6527 C   0  0  0  0  0  0  0  0  0  0  0  0
  -45.4877   -1.9176  -18.0498 C   0  0  0  0  0  0  0  0  0  0  0  0
  -46.9728   -1.7463  -17.7877 C   0  0  0  0  0  0  0  0  0  0  0  0
  -47.6187   -2.8742  -18.4279 N   0  0  0  0  0  0  0  0  0  0  0  0
  -49.0416   -3.0442  -18.4693 C   0  0  0  0  0  0  0  0  0  0  0  0
  -49.5364   -4.1559  -18.7973 O   0  0  0  0  0  0  0  0  0  0  0  0
  -47.0820   -4.6942  -26.3083 C   0  0  0  0  0  0  0  0  0  0  0  0
  -47.1371   -4.0426  -24.9671 C   0  0  0  0  0  0  0  0  0  0  0  0
  -46.8277   -4.7849  -23.8632 N   0  0  0  0  0  0  0  0  0  0  0  0
  -46.8742   -4.2011  -22.6415 C   0  0  0  0  0  0  0  0  0  0  0  0
  -46.6058   -4.7849  -21.4214 C   0  0  0  0  0  0  0  0  0  0  0  0
  -46.8283   -3.7122  -20.5533 C   0  0  0  0  0  0  0  0  0  0  0  0
  -47.1955   -2.5895  -21.2180 N   0  0  0  0  0  0  0  0  0  0  0  0
  -47.2169   -2.9190  -22.4936 N   0  0  0  0  0  0  0  0  0  0  0  0
  -47.5395   -2.1218  -23.5404 C   0  0  0  0  0  0  0  0  0  0  0  0
  -47.8910   -0.7914  -23.3354 O   0  0  0  0  0  0  0  0  0  0  0  0
  -47.5051   -2.6795  -24.8304 C   0  0  0  0  0  0  0  0  0  0  0  0
  -47.8557   -1.8441  -26.0189 C   0  0  0  0  0  0  0  0  0  0  0  0
  -47.9076   -0.4397  -22.4671 H   0  0  0  0  0  0  0  0  0  0  0  0
  -49.9518   -1.8865  -18.2212 C   0  0  0  0  0  0  0  0  0  0  0  0
  -50.3510   -1.2780  -19.5300 C   0  0  0  0  0  0  0  0  0  0  0  0
  -50.1290   -1.9753  -20.6767 N   0  0  0  0  0  0  0  0  0  0  0  0
  -50.5076   -1.5106  -21.8688 N   0  0  0  0  0  0  0  0  0  0  0  0
  -51.1416   -0.3168  -22.0012 C   0  0  0  0  0  0  0  0  0  0  0  0
  -51.4984    0.0752  -23.1451 O   0  0  0  0  0  0  0  0  0  0  0  0
  -51.4011    0.4550  -20.8613 C   0  0  0  0  0  0  0  0  0  0  0  0
  -52.0577    1.6912  -20.9509 C   0  0  0  0  0  0  0  0  0  0  0  0
  -52.3130    2.4372  -19.7975 C   0  0  0  0  0  0  0  0  0  0  0  0
  -51.9166    1.9544  -18.5484 C   0  0  0  0  0  0  0  0  0  0  0  0
  -51.2636    0.7232  -18.4479 C   0  0  0  0  0  0  0  0  0  0  0  0
  -51.0004   -0.0350  -19.5991 C   0  0  0  0  0  0  0  0  0  0  0  0
  -50.3224   -2.0470  -22.6733 H   0  0  0  0  0  0  0  0  0  0  0  0
  8  9  1  0  0  0
  9 10  2  0  0  0
 10 11  1  0  0  0
 11 12  2  0  0  0
 12 13  1  0  0  0
  1 13  1  0  0  0
  1  2  1  0  0  0
  2  3  1  0  0  0
  3  4  1  0  0  0
  4  5  1  0  0  0
  5  6  1  0  0  0
  6  7  2  0  0  0
  6 21  1  0  0  0
 21 22  1  0  0  0
 22 23  2  0  0  0
 23 24  1  0  0  0
 24 25  1  0  0  0
 25 26  2  0  0  0
 25 27  1  0  0  0
 27 28  2  0  0  0
 28 29  1  0  0  0
 29 30  2  0  0  0
 30 31  1  0  0  0
 31 32  2  0  0  0
 13 14  2  0  0  0
 14 15  1  0  0  0
 15 16  1  0  0  0
 16 17  1  0  0  0
 16 18  2  0  0  0
 18 19  1  0  0  0
 18  9  1  0  0  0
 15 11  1  0  0  0
  5  1  1  0  0  0
 32 22  1  0  0  0
 32 27  1  0  0  0
 24 33  1  0  0  0
 17 20  1  0  0  0
M  END
>  <minimizedAffinity>
-8.09903

>  <minimizedRMSD>
3.70469

$$$$
ZINC000004878453 PubChem-92237773


 32 34  0  0  0  0  0  0  0  0999 V2000
  -49.0923   -0.6782  -25.7908 C   0  0  0  0  0  0  0  0  0  0  0  0
  -49.1895   -0.6176  -24.3039 C   0  0  0  0  0  0  0  0  0  0  0  0
  -48.3453   -1.3819  -23.4803 C   0  0  0  0  0  0  0  0  0  0  0  0
  -48.4677   -1.2974  -22.0913 C   0  0  0  0  0  0  0  0  0  0  0  0
  -49.4260   -0.4581  -21.4954 C   0  0  0  0  0  0  0  0  0  0  0  0
  -50.2705    0.3097  -22.3402 C   0  0  0  0  0  0  0  0  0  0  0  0
  -50.1450    0.2226  -23.7284 C   0  0  0  0  0  0  0  0  0  0  0  0
  -51.2321    1.1578  -21.7978 C   0  0  0  0  0  0  0  0  0  0  0  0
  -51.3637    1.2530  -20.4176 C   0  0  0  0  0  0  0  0  0  0  0  0
  -52.2996    2.0793  -19.7929 C   0  0  0  0  0  0  0  0  0  0  0  0
  -53.0872    2.7917  -20.4711 O   0  0  0  0  0  0  0  0  0  0  0  0
  -52.3608    2.1154  -18.4357 N   0  0  0  0  0  0  0  0  0  0  0  0
  -51.5350    1.3683  -17.6525 C   0  0  0  0  0  0  0  0  0  0  0  0
  -51.6323    1.4386  -16.4003 O   0  0  0  0  0  0  0  0  0  0  0  0
  -50.6064    0.5469  -18.2103 N   0  0  0  0  0  0  0  0  0  0  0  0
  -50.4752    0.4460  -19.5596 C   0  0  0  0  0  0  0  0  0  0  0  0
  -49.5443   -0.3802  -20.1268 N   0  0  0  0  0  0  0  0  0  0  0  0
  -47.3114   -2.2914  -24.0528 C   0  0  0  0  0  0  0  0  0  0  0  0
  -53.0244    2.7011  -18.0047 H   0  0  0  0  0  0  0  0  0  0  0  0
  -48.6817   -1.1864  -19.2572 C   0  0  0  0  0  0  0  0  0  0  0  0
  -49.2163   -2.6072  -19.1387 C   0  0  0  0  0  0  0  0  0  0  0  0
  -50.2001   -2.6685  -18.1481 O   0  0  0  0  0  0  0  0  0  0  0  0
  -49.8172   -2.4090  -17.2956 H   0  0  0  0  0  0  0  0  0  0  0  0
  -48.0687   -3.5709  -18.8295 C   0  0  0  0  0  0  0  0  0  0  0  0
  -47.8266   -3.6480  -17.4548 O   0  0  0  0  0  0  0  0  0  0  0  0
  -48.6041   -4.0202  -17.0100 H   0  0  0  0  0  0  0  0  0  0  0  0
  -48.2691   -4.9664  -19.4249 C   0  0  0  0  0  0  0  0  0  0  0  0
  -49.4901   -5.0318  -20.0994 O   0  0  0  0  0  0  0  0  0  0  0  0
  -50.2145   -4.8817  -19.4720 H   0  0  0  0  0  0  0  0  0  0  0  0
  -48.1890   -6.0664  -18.3751 C   0  0  0  0  0  0  0  0  0  0  0  0
  -48.9577   -7.1597  -18.7741 O   0  0  0  0  0  0  0  0  0  0  0  0
  -49.8823   -6.8849  -18.8763 H   0  0  0  0  0  0  0  0  0  0  0  0
  1  2  1  0  0  0
  2  3  2  0  0  0
  3  4  1  0  0  0
  4  5  2  0  0  0
  5  6  1  0  0  0
  6  7  2  0  0  0
  6  8  1  0  0  0
  8  9  2  0  0  0
  9 10  1  0  0  0
 10 11  2  0  0  0
 10 12  1  0  0  0
 12 13  1  0  0  0
 13 14  2  0  0  0
 13 15  1  0  0  0
 15 16  2  0  0  0
 16 17  1  0  0  0
 17 20  1  0  0  0
 21 20  1  0  0  0
 21 24  1  0  0  0
 24 27  1  0  0  0
 27 30  1  0  0  0
 30 31  1  0  0  0
 27 28  1  0  0  0
 24 25  1  0  0  0
 21 22  1  0  0  0
  3 18  1  0  0  0
  7  2  1  0  0  0
 17  5  1  0  0  0
 16  9  1  0  0  0
 12 19  1  0  0  0
 31 32  1  0  0  0
 28 29  1  0  0  0
 25 26  1  0  0  0
 22 23  1  0  0  0
M  END
>  <minimizedAffinity>
-8.09459

>  <minimizedRMSD>
0.99492

$$$$
ZINC000018195610 ZINC18195610


 26 29  0  0  0  0  0  0  0  0999 V2000
  -48.2651   -2.9617  -22.4806 C   0  0  0  0  0  0  0  0  0  0  0  0
  -47.8664   -1.6610  -23.1607 C   0  0  0  0  0  0  0  0  0  0  0  0
  -49.1065   -0.8138  -23.4552 C   0  0  0  0  0  0  0  0  0  0  0  0
  -49.7253   -0.1984  -22.2262 C   0  0  0  0  0  0  0  0  0  0  0  0
  -48.9909    0.0358  -21.0972 C   0  0  0  0  0  0  0  0  0  0  0  0
  -49.6195    0.6101  -19.8212 C   0  0  0  0  0  0  0  0  0  0  0  0
  -51.0033    1.1257  -20.0708 C   0  0  0  0  0  0  0  0  0  0  0  0
  -51.6863    0.8917  -21.2157 C   0  0  0  0  0  0  0  0  0  0  0  0
  -52.9277    1.4064  -21.1607 N   0  0  0  0  0  0  0  0  0  0  0  0
  -53.0604    1.9735  -19.9652 N   0  0  0  0  0  0  0  0  0  0  0  0
  -51.9022    1.8085  -19.2895 C   0  0  0  0  0  0  0  0  0  0  0  0
  -51.6820    2.2612  -17.9953 O   0  0  0  0  0  0  0  0  0  0  0  0
  -51.1035    0.2068  -22.3156 N   0  0  0  0  0  0  0  0  0  0  0  0
  -47.5470   -0.3005  -21.0808 C   0  0  0  0  0  0  0  0  0  0  0  0
  -46.8475   -0.0558  -20.0624 O   0  0  0  0  0  0  0  0  0  0  0  0
  -46.8813   -0.8845  -22.2902 C   0  0  0  0  0  0  0  0  0  0  0  0
  -47.1898   -1.9976  -24.4724 C   0  0  0  0  0  0  0  0  0  0  0  0
  -53.6088    1.3702  -21.8707 H   0  0  0  0  0  0  0  0  0  0  0  0
  -52.3588    2.7205  -17.5382 H   0  0  0  0  0  0  0  0  0  0  0  0
  -51.6320    0.0132  -23.1233 H   0  0  0  0  0  0  0  0  0  0  0  0
  -49.6331   -0.4061  -18.7159 C   0  0  0  0  0  0  0  0  0  0  0  0
  -50.0285   -1.7314  -18.9437 C   0  0  0  0  0  0  0  0  0  0  0  0
  -50.0372   -2.6466  -17.8905 C   0  0  0  0  0  0  0  0  0  0  0  0
  -49.6517   -2.2232  -16.6169 C   0  0  0  0  0  0  0  0  0  0  0  0
  -49.2744   -0.9324  -16.4116 N   0  0  0  0  0  0  0  0  0  0  0  0
  -49.2588   -0.0247  -17.4246 C   0  0  0  0  0  0  0  0  0  0  0  0
  1  2  1  0  0  0
  2  3  1  0  0  0
  2 17  1  0  0  0
  3  4  1  0  0  0
  4  5  2  0  0  0
  5  6  1  0  0  0
  5 14  1  0  0  0
  6  7  1  0  0  0
  6 21  1  0  0  0
  7  8  2  0  0  0
  8  9  1  0  0  0
  8 13  1  0  0  0
  9 10  1  0  0  0
 10 11  2  0  0  0
 11 12  1  0  0  0
 11  7  1  0  0  0
 13  4  1  0  0  0
 21 22  2  0  0  0
 22 23  1  0  0  0
 23 24  2  0  0  0
 24 25  1  0  0  0
 25 26  2  0  0  0
 26 21  1  0  0  0
 14 15  2  0  0  0
 14 16  1  0  0  0
 16  2  1  0  0  0
  9 18  1  0  0  0
 12 19  1  0  0  0
 13 20  1  0  0  0
M  END
>  <minimizedAffinity>
-8.08607

>  <minimizedRMSD>
1.36360

$$$$
ZINC000018195610 ZINC18195610


 26 29  0  0  0  0  0  0  0  0999 V2000
  -47.1898   -1.9977  -24.4724 C   0  0  0  0  0  0  0  0  0  0  0  0
  -47.8664   -1.6611  -23.1608 C   0  0  0  0  0  0  0  0  0  0  0  0
  -49.1065   -0.8139  -23.4551 C   0  0  0  0  0  0  0  0  0  0  0  0
  -49.7252   -0.1983  -22.2262 C   0  0  0  0  0  0  0  0  0  0  0  0
  -48.9908    0.0357  -21.0972 C   0  0  0  0  0  0  0  0  0  0  0  0
  -49.6194    0.6100  -19.8211 C   0  0  0  0  0  0  0  0  0  0  0  0
  -51.0032    1.1256  -20.0709 C   0  0  0  0  0  0  0  0  0  0  0  0
  -51.6863    0.8916  -21.2157 C   0  0  0  0  0  0  0  0  0  0  0  0
  -52.9276    1.4064  -21.1607 N   0  0  0  0  0  0  0  0  0  0  0  0
  -53.0603    1.9734  -19.9651 N   0  0  0  0  0  0  0  0  0  0  0  0
  -51.9021    1.8083  -19.2894 C   0  0  0  0  0  0  0  0  0  0  0  0
  -51.6819    2.2611  -17.9952 O   0  0  0  0  0  0  0  0  0  0  0  0
  -51.1034    0.2068  -22.3155 N   0  0  0  0  0  0  0  0  0  0  0  0
  -47.5468   -0.3006  -21.0809 C   0  0  0  0  0  0  0  0  0  0  0  0
  -46.8474   -0.0559  -20.0624 O   0  0  0  0  0  0  0  0  0  0  0  0
  -46.8813   -0.8845  -22.2902 C   0  0  0  0  0  0  0  0  0  0  0  0
  -48.2651   -2.9618  -22.4806 C   0  0  0  0  0  0  0  0  0  0  0  0
  -53.6087    1.3703  -21.8707 H   0  0  0  0  0  0  0  0  0  0  0  0
  -52.3587    2.7204  -17.5381 H   0  0  0  0  0  0  0  0  0  0  0  0
  -51.6320    0.0131  -23.1232 H   0  0  0  0  0  0  0  0  0  0  0  0
  -49.6330   -0.4063  -18.7159 C   0  0  0  0  0  0  0  0  0  0  0  0
  -50.0285   -1.7315  -18.9437 C   0  0  0  0  0  0  0  0  0  0  0  0
  -50.0372   -2.6467  -17.8905 C   0  0  0  0  0  0  0  0  0  0  0  0
  -49.6517   -2.2233  -16.6169 C   0  0  0  0  0  0  0  0  0  0  0  0
  -49.2743   -0.9325  -16.4115 N   0  0  0  0  0  0  0  0  0  0  0  0
  -49.2587   -0.0249  -17.4245 C   0  0  0  0  0  0  0  0  0  0  0  0
  1  2  1  0  0  0
  2  3  1  0  0  0
  2 17  1  0  0  0
  3  4  1  0  0  0
  4  5  2  0  0  0
  5  6  1  0  0  0
  5 14  1  0  0  0
  6  7  1  0  0  0
  6 21  1  0  0  0
  7  8  2  0  0  0
  8  9  1  0  0  0
  8 13  1  0  0  0
  9 10  1  0  0  0
 10 11  2  0  0  0
 11 12  1  0  0  0
 11  7  1  0  0  0
 13  4  1  0  0  0
 21 22  2  0  0  0
 22 23  1  0  0  0
 23 24  2  0  0  0
 24 25  1  0  0  0
 25 26  2  0  0  0
 26 21  1  0  0  0
 14 15  2  0  0  0
 14 16  1  0  0  0
 16  2  1  0  0  0
  9 18  1  0  0  0
 12 19  1  0  0  0
 13 20  1  0  0  0
M  END
>  <minimizedAffinity>
-8.08607

>  <minimizedRMSD>
1.36362

$$$$
ZINC000031811577


 31 35  0  0  0  0  0  0  0  0999 V2000
  -50.5905   -0.6115  -23.6545 C   0  0  0  0  0  0  0  0  0  0  0  0
  -50.3000   -0.8202  -22.2083 C   0  0  0  0  0  0  0  0  0  0  0  0
  -50.5749    0.1116  -21.2814 N   0  0  0  0  0  0  0  0  0  0  0  0
  -50.2728   -0.3873  -20.0949 N   0  0  0  0  0  0  0  0  0  0  0  0
  -49.8453   -1.6641  -20.2385 C   0  0  0  0  0  0  0  0  0  0  0  0
  -49.7840   -1.9687  -21.6037 C   0  0  0  0  0  0  0  0  0  0  0  0
  -49.3550   -3.2567  -22.2907 C   0  0  0  0  0  0  0  0  0  0  0  0
  -48.0841   -4.1621  -21.3632 S   0  0  0  0  0  0  0  0  0  0  0  0
  -49.3653   -4.8015  -20.2703 C   0  0  0  0  0  0  0  0  0  0  0  0
  -49.4267   -3.9530  -19.0572 C   0  0  0  0  0  0  0  0  0  0  0  0
  -49.2548   -4.4959  -17.9358 O   0  0  0  0  0  0  0  0  0  0  0  0
  -49.6823   -2.5458  -19.1127 N   0  0  0  0  0  0  0  0  0  0  0  0
  -49.7594   -2.1079  -18.2343 H   0  0  0  0  0  0  0  0  0  0  0  0
  -50.4682    0.3581  -18.8805 C   0  0  0  0  0  0  0  0  0  0  0  0
  -51.5664    1.1640  -18.7498 N   0  0  0  0  0  0  0  0  0  0  0  0
  -51.7766    1.9212  -17.6255 C   0  0  0  0  0  0  0  0  0  0  0  0
  -50.8745    1.9039  -16.6003 N   0  0  0  0  0  0  0  0  0  0  0  0
  -49.7763    1.1241  -16.7320 C   0  0  0  0  0  0  0  0  0  0  0  0
  -48.7704    1.0118  -15.8570 N   0  0  0  0  0  0  0  0  0  0  0  0
  -47.9191    0.1633  -16.4933 C   0  0  0  0  0  0  0  0  0  0  0  0
  -48.3589   -0.2421  -17.7157 N   0  0  0  0  0  0  0  0  0  0  0  0
  -49.5433    0.3744  -17.8321 C   0  0  0  0  0  0  0  0  0  0  0  0
  -48.6714    1.4366  -14.9744 H   0  0  0  0  0  0  0  0  0  0  0  0
  -48.8661   -3.0564  -23.7018 C   0  0  0  0  0  0  0  0  0  0  0  0
  -49.5908   -3.6283  -24.7609 C   0  0  0  0  0  0  0  0  0  0  0  0
  -50.6984   -4.3729  -24.5159 F   0  0  0  0  0  0  0  0  0  0  0  0
  -49.1602   -3.4581  -26.0798 C   0  0  0  0  0  0  0  0  0  0  0  0
  -48.0047   -2.7217  -26.3518 C   0  0  0  0  0  0  0  0  0  0  0  0
  -47.2762   -2.1535  -25.3054 C   0  0  0  0  0  0  0  0  0  0  0  0
  -47.6983   -2.3169  -23.9842 C   0  0  0  0  0  0  0  0  0  0  0  0
  -46.9663   -1.7654  -22.9843 F   0  0  0  0  0  0  0  0  0  0  0  0
  1  2  1  0  0  0
  2  3  2  0  0  0
  3  4  1  0  0  0
  4 14  1  0  0  0
 14 15  2  0  0  0
 15 16  1  0  0  0
 16 17  2  0  0  0
 17 18  1  0  0  0
 18 19  1  0  0  0
 19 20  1  0  0  0
 20 21  2  0  0  0
 21 22  1  0  0  0
  4  5  1  0  0  0
  5  6  2  0  0  0
  6  7  1  0  0  0
  7 24  1  0  0  0
 24 25  2  0  0  0
 25 26  1  0  0  0
 25 27  1  0  0  0
 27 28  2  0  0  0
 28 29  1  0  0  0
 29 30  2  0  0  0
 30 31  1  0  0  0
  7  8  1  0  0  0
  8  9  1  0  0  0
  9 10  1  0  0  0
 10 11  2  0  0  0
 10 12  1  0  0  0
  6  2  1  0  0  0
 30 24  1  0  0  0
 22 14  1  0  0  0
 12  5  1  0  0  0
 22 18  2  0  0  0
 19 23  1  0  0  0
 12 13  1  0  0  0
M  END
>  <minimizedAffinity>
-8.08542

>  <minimizedRMSD>
3.05237

$$$$
ZINC000257179241


 32 35  0  0  0  0  0  0  0  0999 V2000
  -48.4162   -0.7242  -22.0922 C   0  0  0  0  0  0  0  0  0  0  0  0
  -47.4437   -1.5144  -21.9518 O   0  0  0  0  0  0  0  0  0  0  0  0
  -48.6375    0.3068  -21.1048 N   0  0  0  0  0  0  0  0  0  0  0  0
  -47.5426    0.7432  -20.2420 C   0  0  0  0  0  0  0  0  0  0  0  0
  -47.1890   -0.3162  -19.2020 C   0  0  0  0  0  0  0  0  0  0  0  0
  -48.0597   -0.1848  -17.9607 C   0  0  0  0  0  0  0  0  0  0  0  0
  -49.4266   -0.8142  -18.1882 C   0  0  0  0  0  0  0  0  0  0  0  0
  -50.4819   -0.1815  -17.2941 C   0  0  0  0  0  0  0  0  0  0  0  0
  -50.7747    1.2459  -17.7403 C   0  0  0  0  0  0  0  0  0  0  0  0
  -51.9878    1.3148  -18.5483 N   0  0  0  0  0  0  0  0  0  0  0  0
  -52.1133    0.8219  -19.8878 C   0  0  0  0  0  0  0  0  0  0  0  0
  -53.1836    1.0205  -20.5186 O   0  0  0  0  0  0  0  0  0  0  0  0
  -51.0077    0.0786  -20.5574 C   0  0  0  0  0  0  0  0  0  0  0  0
  -49.9010    1.0279  -20.9876 C   0  0  0  0  0  0  0  0  0  0  0  0
  -52.7814    1.7320  -18.1416 H   0  0  0  0  0  0  0  0  0  0  0  0
  -51.5233   -2.5284  -26.0897 C   0  0  0  0  0  0  0  0  0  0  0  0
  -50.7069   -1.7375  -25.1326 C   0  0  0  0  0  0  0  0  0  0  0  0
  -50.4537   -0.3779  -25.2310 C   0  0  0  0  0  0  0  0  0  0  0  0
  -49.6478    0.0980  -24.1873 C   0  0  0  0  0  0  0  0  0  0  0  0
  -49.2845   -0.8912  -23.2763 C   0  0  0  0  0  0  0  0  0  0  0  0
  -49.9441   -2.3580  -23.7743 S   0  0  0  0  0  0  0  0  0  0  0  0
  -49.3755   -2.2904  -17.9864 C   0  0  0  0  0  0  0  0  0  0  0  0
  -48.8011   -3.1385  -18.8588 N   0  0  0  0  0  0  0  0  0  0  0  0
  -49.0005   -4.3240  -18.2442 C   0  0  0  0  0  0  0  0  0  0  0  0
  -49.6563   -4.1946  -17.0727 N   0  0  0  0  0  0  0  0  0  0  0  0
  -49.8702   -2.9203  -16.9493 O   0  0  0  0  0  0  0  0  0  0  0  0
  -48.5482   -5.6124  -18.7914 C   0  0  0  0  0  0  0  0  0  0  0  0
  -47.9370   -6.5603  -17.9587 C   0  0  0  0  0  0  0  0  0  0  0  0
  -47.5064   -7.7840  -18.4802 C   0  0  0  0  0  0  0  0  0  0  0  0
  -47.6845   -8.0669  -19.8373 C   0  0  0  0  0  0  0  0  0  0  0  0
  -48.2928   -7.1264  -20.6732 C   0  0  0  0  0  0  0  0  0  0  0  0
  -48.7235   -5.9028  -20.1518 C   0  0  0  0  0  0  0  0  0  0  0  0
 16 17  1  0  0  0
 17 18  2  0  0  0
 18 19  1  0  0  0
 19 20  2  0  0  0
 20  1  1  0  0  0
  1  2  2  0  0  0
  1  3  1  0  0  0
  3  4  1  0  0  0
  4  5  1  0  0  0
  5  6  1  0  0  0
  6  7  1  0  0  0
  7 22  1  0  0  0
 22 23  2  0  0  0
 23 24  1  0  0  0
 24 27  1  0  0  0
 27 28  2  0  0  0
 28 29  1  0  0  0
 29 30  2  0  0  0
 30 31  1  0  0  0
 31 32  2  0  0  0
 24 25  2  0  0  0
 25 26  1  0  0  0
  7  8  1  0  0  0
  8  9  1  0  0  0
  9 10  1  0  0  0
 10 11  1  0  0  0
 11 12  2  0  0  0
 11 13  1  0  0  0
 13 14  1  0  0  0
 20 21  1  0  0  0
 21 17  1  0  0  0
 14  3  1  0  0  0
 26 22  1  0  0  0
 32 27  1  0  0  0
 10 15  1  0  0  0
M  END
>  <minimizedAffinity>
-8.08246

>  <minimizedRMSD>
2.02840

$$$$
ZINC000064605344 ZINC64605344 ChemDiv-J046-1135 MCULE-1856858286 MolPort-010-723-805 PubChem-50813209


 35 37  0  0  0  0  0  0  0  0999 V2000
  -46.7262   -1.4265  -20.2314 N   0  0  0  0  0  0  0  0  0  0  0  0
  -46.6699   -2.0114  -21.4302 N   0  0  0  0  0  0  0  0  0  0  0  0
  -47.5069   -1.6659  -22.4450 C   0  0  0  0  0  0  0  0  0  0  0  0
  -48.4598   -0.6708  -22.2201 C   0  0  0  0  0  0  0  0  0  0  0  0
  -48.5381   -0.0510  -20.9721 C   0  0  0  0  0  0  0  0  0  0  0  0
  -47.6471   -0.4500  -19.9693 C   0  0  0  0  0  0  0  0  0  0  0  0
  -47.6995    0.0911  -18.8301 O   0  0  0  0  0  0  0  0  0  0  0  0
  -47.4059   -2.3443  -23.7546 C   0  0  0  0  0  0  0  0  0  0  0  0
  -47.2921   -3.7422  -23.8159 C   0  0  0  0  0  0  0  0  0  0  0  0
  -47.1933   -4.3926  -25.0494 C   0  0  0  0  0  0  0  0  0  0  0  0
  -47.2116   -3.6513  -26.2337 C   0  0  0  0  0  0  0  0  0  0  0  0
  -47.1092   -4.3432  -27.5449 C   0  0  0  0  0  0  0  0  0  0  0  0
  -47.3293   -2.2600  -26.1851 C   0  0  0  0  0  0  0  0  0  0  0  0
  -47.4248   -1.6092  -24.9517 C   0  0  0  0  0  0  0  0  0  0  0  0
  -49.5093    0.9709  -20.6965 N   0  0  0  0  0  0  0  0  0  0  0  0
  -50.9342    0.8664  -20.8465 C   0  0  0  0  0  0  0  0  0  0  0  0
  -51.4675   -0.1925  -21.2719 O   0  0  0  0  0  0  0  0  0  0  0  0
  -49.1623    1.8328  -20.3710 H   0  0  0  0  0  0  0  0  0  0  0  0
  -51.8072    2.0260  -20.4972 C   0  0  0  0  0  0  0  0  0  0  0  0
  -52.0453    2.0762  -18.9998 C   0  0  0  0  0  0  0  0  0  0  0  0
  -53.1340    1.9317  -21.2256 C   0  0  0  0  0  0  0  0  0  0  0  0
  -45.8169   -1.8915  -19.1912 C   0  0  0  0  0  0  0  0  0  0  0  0
  -46.2130   -4.3747  -19.4047 N   0  0  0  0  0  0  0  0  0  0  0  0
  -46.3136   -3.1773  -18.6282 C   0  0  0  0  0  0  0  0  0  0  0  0
  -46.8248   -3.1958  -17.4766 O   0  0  0  0  0  0  0  0  0  0  0  0
  -45.5585   -4.3868  -20.1401 H   0  0  0  0  0  0  0  0  0  0  0  0
  -48.2418   -5.7531  -19.8227 C   0  0  0  0  0  0  0  0  0  0  0  0
  -46.9932   -5.5574  -19.1923 C   0  0  0  0  0  0  0  0  0  0  0  0
  -46.4605   -6.5681  -18.3845 C   0  0  0  0  0  0  0  0  0  0  0  0
  -47.1752   -7.7461  -18.1566 C   0  0  0  0  0  0  0  0  0  0  0  0
  -46.6043   -8.8042  -17.2830 C   0  0  0  0  0  0  0  0  0  0  0  0
  -48.4267   -7.9280  -18.7466 C   0  0  0  0  0  0  0  0  0  0  0  0
  -48.9553   -6.9394  -19.5790 C   0  0  0  0  0  0  0  0  0  0  0  0
  -49.6960   -3.8067  -20.3157 C   0  0  0  0  0  0  0  0  0  0  0  0
  -48.7418   -4.7865  -20.7035 O   0  0  0  0  0  0  0  0  0  0  0  0
 34 35  1  0  0  0
 35 27  1  0  0  0
 27 28  2  0  0  0
 28 23  1  0  0  0
 28 29  1  0  0  0
 23 24  1  0  0  0
 24 25  2  0  0  0
 24 22  1  0  0  0
 22  1  1  0  0  0
  1  2  1  0  0  0
  2  3  2  0  0  0
  3  4  1  0  0  0
  3  8  1  0  0  0
  4  5  2  0  0  0
  5 15  1  0  0  0
  5  6  1  0  0  0
 15 16  1  0  0  0
 16 17  2  0  0  0
 16 19  1  0  0  0
 19 20  1  0  0  0
 19 21  1  0  0  0
  6  7  2  0  0  0
  6  1  1  0  0  0
  8  9  2  0  0  0
  9 10  1  0  0  0
 10 11  2  0  0  0
 11 12  1  0  0  0
 11 13  1  0  0  0
 13 14  2  0  0  0
 14  8  1  0  0  0
 29 30  2  0  0  0
 30 31  1  0  0  0
 30 32  1  0  0  0
 32 33  2  0  0  0
 33 27  1  0  0  0
 23 26  1  0  0  0
 15 18  1  0  0  0
M  END
>  <minimizedAffinity>
-8.08236

>  <minimizedRMSD>
3.43097

$$$$
ZINC000005011747 PubChem-92247271


 33 35  0  0  0  0  0  0  0  0999 V2000
  -47.1972   -2.5472  -23.8185 C   0  0  0  0  0  0  0  0  0  0  0  0
  -48.2359   -1.6140  -23.2945 C   0  0  0  0  0  0  0  0  0  0  0  0
  -48.3911   -1.4921  -21.9131 C   0  0  0  0  0  0  0  0  0  0  0  0
  -49.3551   -0.6298  -21.3607 C   0  0  0  0  0  0  0  0  0  0  0  0
  -50.1785    0.1290  -22.2359 C   0  0  0  0  0  0  0  0  0  0  0  0
  -50.0123   -0.0026  -23.6231 C   0  0  0  0  0  0  0  0  0  0  0  0
  -49.0524   -0.8643  -24.1555 C   0  0  0  0  0  0  0  0  0  0  0  0
  -48.9218   -0.9630  -25.6378 C   0  0  0  0  0  0  0  0  0  0  0  0
  -51.1250    0.9804  -21.7400 N   0  0  0  0  0  0  0  0  0  0  0  0
  -51.2908    1.1149  -20.3908 C   0  0  0  0  0  0  0  0  0  0  0  0
  -52.2377    1.9688  -19.7963 C   0  0  0  0  0  0  0  0  0  0  0  0
  -53.0103    2.6774  -20.4940 O   0  0  0  0  0  0  0  0  0  0  0  0
  -52.3262    2.0358  -18.4422 N   0  0  0  0  0  0  0  0  0  0  0  0
  -51.5271    1.3025  -17.6228 C   0  0  0  0  0  0  0  0  0  0  0  0
  -51.6520    1.4044  -16.3752 O   0  0  0  0  0  0  0  0  0  0  0  0
  -50.5955    0.4612  -18.1389 N   0  0  0  0  0  0  0  0  0  0  0  0
  -50.4348    0.3261  -19.4813 C   0  0  0  0  0  0  0  0  0  0  0  0
  -49.5004   -0.5203  -20.0010 N   0  0  0  0  0  0  0  0  0  0  0  0
  -51.9074    1.7012  -22.6184 O   0  0  0  0  0  0  0  0  0  0  0  0
  -52.9935    2.6375  -18.0397 H   0  0  0  0  0  0  0  0  0  0  0  0
  -48.6655   -1.3125  -19.0920 C   0  0  0  0  0  0  0  0  0  0  0  0
  -49.2587   -2.7008  -18.8913 C   0  0  0  0  0  0  0  0  0  0  0  0
  -50.4329   -2.6220  -18.1377 O   0  0  0  0  0  0  0  0  0  0  0  0
  -50.2326   -2.2486  -17.2651 H   0  0  0  0  0  0  0  0  0  0  0  0
  -48.2423   -3.6177  -18.2130 C   0  0  0  0  0  0  0  0  0  0  0  0
  -48.1864   -3.3454  -16.8426 O   0  0  0  0  0  0  0  0  0  0  0  0
  -49.0540   -3.5153  -16.4435 H   0  0  0  0  0  0  0  0  0  0  0  0
  -48.5848   -5.0877  -18.4452 C   0  0  0  0  0  0  0  0  0  0  0  0
  -47.7376   -5.8979  -17.6860 O   0  0  0  0  0  0  0  0  0  0  0  0
  -46.8183   -5.7476  -17.9566 H   0  0  0  0  0  0  0  0  0  0  0  0
  -48.4288   -5.4417  -19.9160 C   0  0  0  0  0  0  0  0  0  0  0  0
  -49.4332   -6.3304  -20.2989 O   0  0  0  0  0  0  0  0  0  0  0  0
  -49.3680   -7.1400  -19.7687 H   0  0  0  0  0  0  0  0  0  0  0  0
  1  2  1  0  0  0
  2  3  2  0  0  0
  3  4  1  0  0  0
  4  5  2  0  0  0
  5  6  1  0  0  0
  6  7  2  0  0  0
  7  8  1  0  0  0
  5  9  1  0  0  0
  9 10  2  0  0  0
 10 11  1  0  0  0
 11 12  2  0  0  0
 11 13  1  0  0  0
 13 14  1  0  0  0
 14 15  2  0  0  0
 14 16  1  0  0  0
 16 17  2  0  0  0
 17 18  1  0  0  0
 18 21  1  0  0  0
 22 21  1  0  0  0
 22 25  1  0  0  0
 25 28  1  0  0  0
 28 31  1  0  0  0
 31 32  1  0  0  0
 28 29  1  0  0  0
 25 26  1  0  0  0
 22 23  1  0  0  0
  9 19  1  0  0  0
  7  2  1  0  0  0
 18  4  1  0  0  0
 17 10  1  0  0  0
 13 20  1  0  0  0
 32 33  1  0  0  0
 29 30  1  0  0  0
 26 27  1  0  0  0
 23 24  1  0  0  0
M  CHG 1   9   1
M  CHG 1  19  -1
M  END
>  <minimizedAffinity>
-8.07949

>  <minimizedRMSD>
0.72446

$$$$
ZINC000001703511 PubChem-92161731


 32 34  0  0  0  0  0  0  0  0999 V2000
  -49.2524   -0.7966  -25.8205 C   0  0  0  0  0  0  0  0  0  0  0  0
  -49.2749   -0.6310  -24.3385 C   0  0  0  0  0  0  0  0  0  0  0  0
  -48.3240   -1.2568  -23.5144 C   0  0  0  0  0  0  0  0  0  0  0  0
  -48.3791   -1.0771  -22.1301 C   0  0  0  0  0  0  0  0  0  0  0  0
  -49.3743   -0.2780  -21.5395 C   0  0  0  0  0  0  0  0  0  0  0  0
  -50.3269    0.3497  -22.3849 C   0  0  0  0  0  0  0  0  0  0  0  0
  -50.2686    0.1677  -23.7684 C   0  0  0  0  0  0  0  0  0  0  0  0
  -51.3287    1.1535  -21.8480 C   0  0  0  0  0  0  0  0  0  0  0  0
  -51.3939    1.3428  -20.4728 C   0  0  0  0  0  0  0  0  0  0  0  0
  -52.3635    2.1339  -19.8539 C   0  0  0  0  0  0  0  0  0  0  0  0
  -53.2459    2.7241  -20.5331 O   0  0  0  0  0  0  0  0  0  0  0  0
  -52.3546    2.2690  -18.5018 N   0  0  0  0  0  0  0  0  0  0  0  0
  -51.4254    1.6560  -17.7180 C   0  0  0  0  0  0  0  0  0  0  0  0
  -51.4608    1.8142  -16.4704 O   0  0  0  0  0  0  0  0  0  0  0  0
  -50.4599    0.8743  -18.2701 N   0  0  0  0  0  0  0  0  0  0  0  0
  -50.3933    0.6810  -19.6140 C   0  0  0  0  0  0  0  0  0  0  0  0
  -49.4255   -0.1060  -20.1753 N   0  0  0  0  0  0  0  0  0  0  0  0
  -47.2460   -2.1173  -24.0812 C   0  0  0  0  0  0  0  0  0  0  0  0
  -53.0428    2.8288  -18.0748 H   0  0  0  0  0  0  0  0  0  0  0  0
  -48.4499   -0.7688  -19.3042 C   0  0  0  0  0  0  0  0  0  0  0  0
  -49.0600   -2.0095  -18.6605 C   0  0  0  0  0  0  0  0  0  0  0  0
  -49.1390   -1.8198  -17.2794 O   0  0  0  0  0  0  0  0  0  0  0  0
  -48.2487   -1.6791  -16.9209 H   0  0  0  0  0  0  0  0  0  0  0  0
  -48.2177   -3.2503  -18.9831 C   0  0  0  0  0  0  0  0  0  0  0  0
  -46.9579   -2.8643  -19.4469 O   0  0  0  0  0  0  0  0  0  0  0  0
  -47.0563   -2.3654  -20.2729 H   0  0  0  0  0  0  0  0  0  0  0  0
  -48.8654   -4.1670  -20.0241 C   0  0  0  0  0  0  0  0  0  0  0  0
  -50.2039   -3.8235  -20.2343 O   0  0  0  0  0  0  0  0  0  0  0  0
  -50.7015   -3.9426  -19.4103 H   0  0  0  0  0  0  0  0  0  0  0  0
  -48.7455   -5.6300  -19.6315 C   0  0  0  0  0  0  0  0  0  0  0  0
  -49.5049   -6.4171  -20.4972 O   0  0  0  0  0  0  0  0  0  0  0  0
  -50.4358   -6.1494  -20.4449 H   0  0  0  0  0  0  0  0  0  0  0  0
  1  2  1  0  0  0
  2  3  2  0  0  0
  3  4  1  0  0  0
  4  5  2  0  0  0
  5  6  1  0  0  0
  6  7  2  0  0  0
  6  8  1  0  0  0
  8  9  2  0  0  0
  9 10  1  0  0  0
 10 11  2  0  0  0
 10 12  1  0  0  0
 12 13  1  0  0  0
 13 14  2  0  0  0
 13 15  1  0  0  0
 15 16  2  0  0  0
 16 17  1  0  0  0
 17 20  1  0  0  0
 21 20  1  0  0  0
 21 24  1  0  0  0
 24 27  1  0  0  0
 27 30  1  0  0  0
 30 31  1  0  0  0
 27 28  1  0  0  0
 24 25  1  0  0  0
 21 22  1  0  0  0
  3 18  1  0  0  0
  7  2  1  0  0  0
 17  5  1  0  0  0
 16  9  1  0  0  0
 12 19  1  0  0  0
 31 32  1  0  0  0
 28 29  1  0  0  0
 25 26  1  0  0  0
 22 23  1  0  0  0
M  END
>  <minimizedAffinity>
-8.07621

>  <minimizedRMSD>
1.51547

$$$$
ZINC000031808022


 30 34  0  0  0  0  0  0  0  0999 V2000
  -47.4437   -1.4638  -24.2354 C   0  0  0  0  0  0  0  0  0  0  0  0
  -48.4160   -1.2519  -23.1273 C   0  0  0  0  0  0  0  0  0  0  0  0
  -49.3703   -0.3048  -23.1503 N   0  0  0  0  0  0  0  0  0  0  0  0
  -50.0514   -0.3959  -22.0198 N   0  0  0  0  0  0  0  0  0  0  0  0
  -49.5686   -1.4168  -21.2750 C   0  0  0  0  0  0  0  0  0  0  0  0
  -48.4915   -1.9845  -21.9545 C   0  0  0  0  0  0  0  0  0  0  0  0
  -47.6053   -3.1536  -21.6270 C   0  0  0  0  0  0  0  0  0  0  0  0
  -47.3249   -3.4463  -19.8521 S   0  0  0  0  0  0  0  0  0  0  0  0
  -49.0087   -4.0458  -19.5843 C   0  0  0  0  0  0  0  0  0  0  0  0
  -49.8857   -2.9230  -19.1733 C   0  0  0  0  0  0  0  0  0  0  0  0
  -50.4419   -2.9801  -18.0465 O   0  0  0  0  0  0  0  0  0  0  0  0
  -50.1545   -1.8015  -20.0195 N   0  0  0  0  0  0  0  0  0  0  0  0
  -50.8549   -1.1941  -19.6883 H   0  0  0  0  0  0  0  0  0  0  0  0
  -51.1708    0.4512  -21.7228 C   0  0  0  0  0  0  0  0  0  0  0  0
  -52.0314    0.8226  -22.7182 N   0  0  0  0  0  0  0  0  0  0  0  0
  -53.0939    1.6544  -22.4741 C   0  0  0  0  0  0  0  0  0  0  0  0
  -53.3124    2.1505  -21.2196 N   0  0  0  0  0  0  0  0  0  0  0  0
  -52.4528    1.7953  -20.2352 C   0  0  0  0  0  0  0  0  0  0  0  0
  -52.4711    2.2227  -18.9671 N   0  0  0  0  0  0  0  0  0  0  0  0
  -51.3709    1.6203  -18.4386 C   0  0  0  0  0  0  0  0  0  0  0  0
  -50.6829    0.8517  -19.3268 N   0  0  0  0  0  0  0  0  0  0  0  0
  -51.4019    0.9765  -20.4509 C   0  0  0  0  0  0  0  0  0  0  0  0
  -53.1171    2.8216  -18.5275 H   0  0  0  0  0  0  0  0  0  0  0  0
  -47.8993   -4.4002  -22.4208 C   0  0  0  0  0  0  0  0  0  0  0  0
  -49.1424   -4.5638  -23.0531 C   0  0  0  0  0  0  0  0  0  0  0  0
  -49.4159   -5.7166  -23.7925 C   0  0  0  0  0  0  0  0  0  0  0  0
  -48.4485   -6.7164  -23.9084 C   0  0  0  0  0  0  0  0  0  0  0  0
  -47.2075   -6.5629  -23.2861 C   0  0  0  0  0  0  0  0  0  0  0  0
  -46.9270   -5.4112  -22.5439 C   0  0  0  0  0  0  0  0  0  0  0  0
  -45.3469   -5.2653  -21.7887 Cl  0  0  0  0  0  0  0  0  0  0  0  0
  1  2  1  0  0  0
  2  3  2  0  0  0
  3  4  1  0  0  0
  4 14  1  0  0  0
 14 15  2  0  0  0
 15 16  1  0  0  0
 16 17  2  0  0  0
 17 18  1  0  0  0
 18 19  1  0  0  0
 19 20  1  0  0  0
 20 21  2  0  0  0
 21 22  1  0  0  0
  4  5  1  0  0  0
  5  6  2  0  0  0
  6  7  1  0  0  0
  7 24  1  0  0  0
 24 25  2  0  0  0
 25 26  1  0  0  0
 26 27  2  0  0  0
 27 28  1  0  0  0
 28 29  2  0  0  0
 29 30  1  0  0  0
  7  8  1  0  0  0
  8  9  1  0  0  0
  9 10  1  0  0  0
 10 11  2  0  0  0
 10 12  1  0  0  0
  6  2  1  0  0  0
 29 24  1  0  0  0
 22 14  1  0  0  0
 12  5  1  0  0  0
 22 18  2  0  0  0
 19 23  1  0  0  0
 12 13  1  0  0  0
M  END
>  <minimizedAffinity>
-8.07488

>  <minimizedRMSD>
0.66625

$$$$
ZINC000031808027


 30 34  0  0  0  0  0  0  0  0999 V2000
  -47.4436   -1.4638  -24.2353 C   0  0  0  0  0  0  0  0  0  0  0  0
  -48.4159   -1.2518  -23.1272 C   0  0  0  0  0  0  0  0  0  0  0  0
  -49.3702   -0.3048  -23.1503 N   0  0  0  0  0  0  0  0  0  0  0  0
  -50.0514   -0.3960  -22.0197 N   0  0  0  0  0  0  0  0  0  0  0  0
  -49.5686   -1.4167  -21.2749 C   0  0  0  0  0  0  0  0  0  0  0  0
  -48.4915   -1.9845  -21.9545 C   0  0  0  0  0  0  0  0  0  0  0  0
  -47.6054   -3.1536  -21.6271 C   0  0  0  0  0  0  0  0  0  0  0  0
  -47.3248   -3.4463  -19.8520 S   0  0  0  0  0  0  0  0  0  0  0  0
  -49.0087   -4.0459  -19.5842 C   0  0  0  0  0  0  0  0  0  0  0  0
  -49.8855   -2.9231  -19.1732 C   0  0  0  0  0  0  0  0  0  0  0  0
  -50.4419   -2.9802  -18.0465 O   0  0  0  0  0  0  0  0  0  0  0  0
  -50.1544   -1.8016  -20.0195 N   0  0  0  0  0  0  0  0  0  0  0  0
  -50.8548   -1.1942  -19.6883 H   0  0  0  0  0  0  0  0  0  0  0  0
  -51.1708    0.4512  -21.7226 C   0  0  0  0  0  0  0  0  0  0  0  0
  -52.0315    0.8225  -22.7180 N   0  0  0  0  0  0  0  0  0  0  0  0
  -53.0939    1.6544  -22.4740 C   0  0  0  0  0  0  0  0  0  0  0  0
  -53.3123    2.1504  -21.2195 N   0  0  0  0  0  0  0  0  0  0  0  0
  -52.4528    1.7952  -20.2351 C   0  0  0  0  0  0  0  0  0  0  0  0
  -52.4710    2.2227  -18.9670 N   0  0  0  0  0  0  0  0  0  0  0  0
  -51.3708    1.6204  -18.4385 C   0  0  0  0  0  0  0  0  0  0  0  0
  -50.6828    0.8517  -19.3268 N   0  0  0  0  0  0  0  0  0  0  0  0
  -51.4020    0.9765  -20.4508 C   0  0  0  0  0  0  0  0  0  0  0  0
  -53.1170    2.8216  -18.5274 H   0  0  0  0  0  0  0  0  0  0  0  0
  -47.8993   -4.4002  -22.4208 C   0  0  0  0  0  0  0  0  0  0  0  0
  -49.1424   -4.5637  -23.0531 C   0  0  0  0  0  0  0  0  0  0  0  0
  -49.4159   -5.7166  -23.7924 C   0  0  0  0  0  0  0  0  0  0  0  0
  -48.4486   -6.7164  -23.9084 C   0  0  0  0  0  0  0  0  0  0  0  0
  -47.2077   -6.5629  -23.2859 C   0  0  0  0  0  0  0  0  0  0  0  0
  -46.9270   -5.4112  -22.5438 C   0  0  0  0  0  0  0  0  0  0  0  0
  -45.3470   -5.2654  -21.7885 Cl  0  0  0  0  0  0  0  0  0  0  0  0
  1  2  1  0  0  0
  2  3  2  0  0  0
  3  4  1  0  0  0
  4 14  1  0  0  0
 14 15  2  0  0  0
 15 16  1  0  0  0
 16 17  2  0  0  0
 17 18  1  0  0  0
 18 19  1  0  0  0
 19 20  1  0  0  0
 20 21  2  0  0  0
 21 22  1  0  0  0
  4  5  1  0  0  0
  5  6  2  0  0  0
  6  7  1  0  0  0
  7 24  1  0  0  0
 24 25  2  0  0  0
 25 26  1  0  0  0
 26 27  2  0  0  0
 27 28  1  0  0  0
 28 29  2  0  0  0
 29 30  1  0  0  0
  7  8  1  0  0  0
  8  9  1  0  0  0
  9 10  1  0  0  0
 10 11  2  0  0  0
 10 12  1  0  0  0
  6  2  1  0  0  0
 29 24  1  0  0  0
 22 14  1  0  0  0
 12  5  1  0  0  0
 22 18  2  0  0  0
 19 23  1  0  0  0
 12 13  1  0  0  0
M  END
>  <minimizedAffinity>
-8.07476

>  <minimizedRMSD>
0.66617

$$$$
ZINC000032740599 ZINC32740599 CSC026941728 MCULE-1168912559 MolPort-005-697-480 PubChem-39966225


 29 31  0  0  0  0  0  0  0  0999 V2000
  -52.0611    2.2932  -18.6695 N   0  0  0  0  0  0  0  0  0  0  0  0
  -52.2534    1.6415  -19.9336 C   0  0  0  0  0  0  0  0  0  0  0  0
  -53.3735    1.7447  -20.5008 O   0  0  0  0  0  0  0  0  0  0  0  0
  -52.5186    3.1546  -18.5357 H   0  0  0  0  0  0  0  0  0  0  0  0
  -51.1675    0.9001  -20.6081 C   0  0  0  0  0  0  0  0  0  0  0  0
  -49.8279    1.2947  -20.4574 C   0  0  0  0  0  0  0  0  0  0  0  0
  -48.8029    0.5998  -21.1064 C   0  0  0  0  0  0  0  0  0  0  0  0
  -49.1121   -0.4923  -21.9190 C   0  0  0  0  0  0  0  0  0  0  0  0
  -48.1298   -1.1804  -22.5554 N   0  0  0  0  0  0  0  0  0  0  0  0
  -48.4169   -2.2439  -23.3531 C   0  0  0  0  0  0  0  0  0  0  0  0
  -47.3003   -2.9650  -24.0295 C   0  0  0  0  0  0  0  0  0  0  0  0
  -49.7573   -2.6372  -23.5230 C   0  0  0  0  0  0  0  0  0  0  0  0
  -50.1274   -3.7945  -24.3879 C   0  0  0  0  0  0  0  0  0  0  0  0
  -50.7410   -1.9471  -22.8855 N   0  0  0  0  0  0  0  0  0  0  0  0
  -50.4535   -0.8863  -22.0883 C   0  0  0  0  0  0  0  0  0  0  0  0
  -51.4740   -0.1885  -21.4384 C   0  0  0  0  0  0  0  0  0  0  0  0
  -49.7588    0.1312  -16.6494 C   0  0  0  0  0  0  0  0  0  0  0  0
  -49.7540    0.8144  -15.4305 C   0  0  0  0  0  0  0  0  0  0  0  0
  -50.5042    1.9833  -15.2809 C   0  0  0  0  0  0  0  0  0  0  0  0
  -51.2607    2.4778  -16.3486 C   0  0  0  0  0  0  0  0  0  0  0  0
  -52.0512    3.7260  -16.1534 C   0  0  0  0  0  0  0  0  0  0  0  0
  -51.2616    1.8024  -17.5823 C   0  0  0  0  0  0  0  0  0  0  0  0
  -50.5198    0.6189  -17.7145 C   0  0  0  0  0  0  0  0  0  0  0  0
  -48.8230   -1.3419  -16.8402 S   0  0  0  0  0  0  0  0  0  0  0  0
  -48.1817   -1.3551  -18.2018 O   0  0  0  0  0  0  0  0  0  0  0  0
  -47.7399   -1.3708  -15.7975 O   0  0  0  0  0  0  0  0  0  0  0  0
  -49.2282   -3.8461  -17.3232 C   0  0  0  0  0  0  0  0  0  0  0  0
  -49.8565   -2.7232  -16.6477 N   0  0  0  0  0  0  0  0  0  0  0  0
  -49.8923   -3.0537  -15.2334 C   0  0  0  0  0  0  0  0  0  0  0  0
 27 28  1  0  0  0
 28 29  1  0  0  0
 28 24  1  0  0  0
 24 25  2  0  0  0
 24 26  2  0  0  0
 24 17  1  0  0  0
 17 18  2  0  0  0
 18 19  1  0  0  0
 19 20  2  0  0  0
 20 21  1  0  0  0
 20 22  1  0  0  0
 22  1  1  0  0  0
 22 23  2  0  0  0
  1  2  1  0  0  0
  2  3  2  0  0  0
  2  5  1  0  0  0
  5  6  2  0  0  0
  6  7  1  0  0  0
  7  8  2  0  0  0
  8  9  1  0  0  0
  9 10  2  0  0  0
 10 11  1  0  0  0
 10 12  1  0  0  0
 12 13  1  0  0  0
 12 14  2  0  0  0
 14 15  1  0  0  0
 15 16  2  0  0  0
 15  8  1  0  0  0
 16  5  1  0  0  0
 23 17  1  0  0  0
  1  4  1  0  0  0
M  END
>  <minimizedAffinity>
-8.07384

>  <minimizedRMSD>
1.63600

$$$$
ZINC000004257540


 38 42  0  0  0  0  0  0  0  0999 V2000
  -49.7050   -4.6991  -25.2255 O   0  0  0  0  0  0  0  0  0  0  0  0
  -49.0921   -3.5977  -25.1674 C   0  0  0  0  0  0  0  0  0  0  0  0
  -49.4689   -2.6459  -24.2077 C   0  0  0  0  0  0  0  0  0  0  0  0
  -50.5174   -2.8831  -23.3076 C   0  0  0  0  0  0  0  0  0  0  0  0
  -50.8655   -1.9133  -22.3644 C   0  0  0  0  0  0  0  0  0  0  0  0
  -50.1692   -0.6949  -22.3079 C   0  0  0  0  0  0  0  0  0  0  0  0
  -49.1244   -0.4570  -23.2061 C   0  0  0  0  0  0  0  0  0  0  0  0
  -48.7699   -1.4218  -24.1534 C   0  0  0  0  0  0  0  0  0  0  0  0
  -47.7759   -1.1806  -24.9976 O   0  0  0  0  0  0  0  0  0  0  0  0
  -47.3952   -2.0591  -25.9181 C   0  0  0  0  0  0  0  0  0  0  0  0
  -48.0275   -3.3067  -26.0541 C   0  0  0  0  0  0  0  0  0  0  0  0
  -47.5471   -4.2472  -27.1116 C   0  0  0  0  0  0  0  0  0  0  0  0
  -47.9920   -4.1012  -28.4363 C   0  0  0  0  0  0  0  0  0  0  0  0
  -47.5400   -4.9554  -29.4437 C   0  0  0  0  0  0  0  0  0  0  0  0
  -46.6369   -5.9788  -29.1494 C   0  0  0  0  0  0  0  0  0  0  0  0
  -46.2341   -6.1854  -27.8115 C   0  0  0  0  0  0  0  0  0  0  0  0
  -46.6701   -5.3034  -26.8183 C   0  0  0  0  0  0  0  0  0  0  0  0
  -45.4418   -7.2743  -27.4334 O   0  0  0  0  0  0  0  0  0  0  0  0
  -45.5150   -8.5291  -28.1032 C   0  0  0  0  0  0  0  0  0  0  0  0
  -44.6931   -8.5458  -29.3861 C   0  0  0  0  0  0  0  0  0  0  0  0
  -44.7996   -7.2543  -30.1869 C   0  0  0  0  0  0  0  0  0  0  0  0
  -46.1287   -6.7438  -30.2039 O   0  0  0  0  0  0  0  0  0  0  0  0
  -50.4965    0.2941  -21.3749 O   0  0  0  0  0  0  0  0  0  0  0  0
  -50.6415    0.0319  -19.9812 C   0  0  0  0  0  0  0  0  0  0  0  0
  -49.6296    0.7052  -19.2626 O   0  0  0  0  0  0  0  0  0  0  0  0
  -49.7693    0.3127  -17.9207 C   0  0  0  0  0  0  0  0  0  0  0  0
  -50.9869    1.0121  -17.2735 C   0  0  0  0  0  0  0  0  0  0  0  0
  -50.6129    2.1193  -16.5036 O   0  0  0  0  0  0  0  0  0  0  0  0
  -52.0293    1.4212  -18.3322 C   0  0  0  0  0  0  0  0  0  0  0  0
  -51.7385    2.6932  -18.8387 O   0  0  0  0  0  0  0  0  0  0  0  0
  -52.0638    0.4010  -19.4788 C   0  0  0  0  0  0  0  0  0  0  0  0
  -52.8925    0.8448  -20.5137 O   0  0  0  0  0  0  0  0  0  0  0  0
  -50.2025    2.7869  -17.0752 H   0  0  0  0  0  0  0  0  0  0  0  0
  -50.8682    2.6795  -19.2669 H   0  0  0  0  0  0  0  0  0  0  0  0
  -52.5353    1.6672  -20.8839 H   0  0  0  0  0  0  0  0  0  0  0  0
  -48.4696    0.5241  -17.1569 C   0  0  0  0  0  0  0  0  0  0  0  0
  -47.4218   -0.1141  -17.8203 O   0  0  0  0  0  0  0  0  0  0  0  0
  -47.6065   -1.0646  -17.8774 H   0  0  0  0  0  0  0  0  0  0  0  0
  1  2  2  0  0  0
  2  3  1  0  0  0
  3  4  2  0  0  0
  4  5  1  0  0  0
  5  6  2  0  0  0
  6 23  1  0  0  0
 24 23  1  0  0  0
 24 25  1  0  0  0
 25 26  1  0  0  0
 26 36  1  0  0  0
 36 37  1  0  0  0
 26 27  1  0  0  0
 27 28  1  0  0  0
 27 29  1  0  0  0
 29 30  1  0  0  0
 29 31  1  0  0  0
 31 32  1  0  0  0
  6  7  1  0  0  0
  7  8  2  0  0  0
  8  9  1  0  0  0
  9 10  1  0  0  0
 10 11  2  0  0  0
 11 12  1  0  0  0
 12 13  2  0  0  0
 13 14  1  0  0  0
 14 15  2  0  0  0
 15 16  1  0  0  0
 16 17  2  0  0  0
 16 18  1  0  0  0
 18 19  1  0  0  0
 19 20  1  0  0  0
 20 21  1  0  0  0
 21 22  1  0  0  0
 11  2  1  0  0  0
 17 12  1  0  0  0
  8  3  1  0  0  0
 22 15  1  0  0  0
 31 24  1  0  0  0
 37 38  1  0  0  0
 28 33  1  0  0  0
 30 34  1  0  0  0
 32 35  1  0  0  0
M  END
>  <minimizedAffinity>
-8.06648

>  <minimizedRMSD>
2.30294

$$$$
ZINC000019126373 ZINC19126373 PubChem-92555022


 33 37  0  0  0  0  0  0  0  0999 V2000
  -46.7853   -1.6074  -20.2567 C   0  0  0  0  0  0  0  0  0  0  0  0
  -46.0265   -0.6267  -20.0213 O   0  0  0  0  0  0  0  0  0  0  0  0
  -47.5067   -2.2123  -19.1624 N   0  0  0  0  0  0  0  0  0  0  0  0
  -47.3903   -1.6454  -17.8232 C   0  0  0  0  0  0  0  0  0  0  0  0
  -48.6664   -0.8761  -17.4974 C   0  0  0  0  0  0  0  0  0  0  0  0
  -49.8864   -1.7909  -17.6370 C   0  0  0  0  0  0  0  0  0  0  0  0
  -49.9466   -2.4829  -19.0082 C   0  0  0  0  0  0  0  0  0  0  0  0
  -48.6130   -3.1447  -19.3723 C   0  0  0  0  0  0  0  0  0  0  0  0
  -47.0727   -5.7160  -26.3897 C   0  0  0  0  0  0  0  0  0  0  0  0
  -47.0606   -4.7127  -25.2927 C   0  0  0  0  0  0  0  0  0  0  0  0
  -46.8103   -5.0114  -23.9531 C   0  0  0  0  0  0  0  0  0  0  0  0
  -46.9093   -3.7755  -23.3498 C   0  0  0  0  0  0  0  0  0  0  0  0
  -46.7616   -3.4209  -22.0124 C   0  0  0  0  0  0  0  0  0  0  0  0
  -46.9270   -2.0644  -21.6598 C   0  0  0  0  0  0  0  0  0  0  0  0
  -47.2166   -1.1137  -22.6703 C   0  0  0  0  0  0  0  0  0  0  0  0
  -47.3593   -1.5009  -24.0142 C   0  0  0  0  0  0  0  0  0  0  0  0
  -47.1992   -2.8500  -24.3127 C   0  0  0  0  0  0  0  0  0  0  0  0
  -47.2885   -3.4267  -25.4807 O   0  0  0  0  0  0  0  0  0  0  0  0
  -50.4651   -1.5944  -20.1010 C   0  0  0  0  0  0  0  0  0  0  0  0
  -50.9037   -0.2937  -19.8390 C   0  0  0  0  0  0  0  0  0  0  0  0
  -51.3396    0.4979  -20.9037 C   0  0  0  0  0  0  0  0  0  0  0  0
  -51.3328   -0.0119  -22.1625 N   0  0  0  0  0  0  0  0  0  0  0  0
  -50.9087   -1.2821  -22.4095 C   0  0  0  0  0  0  0  0  0  0  0  0
  -50.4773   -2.0584  -21.3775 N   0  0  0  0  0  0  0  0  0  0  0  0
  -50.9081   -1.8100  -23.7862 C   0  0  0  0  0  0  0  0  0  0  0  0
  -50.7895   -3.1849  -24.0256 C   0  0  0  0  0  0  0  0  0  0  0  0
  -50.7891   -3.6725  -25.3332 C   0  0  0  0  0  0  0  0  0  0  0  0
  -50.9084   -2.7744  -26.3950 C   0  0  0  0  0  0  0  0  0  0  0  0
  -51.0226   -1.4416  -26.1511 N   0  0  0  0  0  0  0  0  0  0  0  0
  -51.0251   -0.9469  -24.8840 C   0  0  0  0  0  0  0  0  0  0  0  0
  -51.7839    1.8399  -20.6923 N   0  0  0  0  0  0  0  0  0  0  0  0
  -52.2824    2.3141  -19.4107 C   0  0  0  0  0  0  0  0  0  0  0  0
  -51.7509    2.4711  -21.4471 H   0  0  0  0  0  0  0  0  0  0  0  0
  9 10  1  0  0  0
 10 11  2  0  0  0
 11 12  1  0  0  0
 12 13  2  0  0  0
 13 14  1  0  0  0
 14 15  2  0  0  0
 14  1  1  0  0  0
 15 16  1  0  0  0
 16 17  2  0  0  0
 17 18  1  0  0  0
 17 12  1  0  0  0
 18 10  1  0  0  0
  1  2  2  0  0  0
  1  3  1  0  0  0
  3  4  1  0  0  0
  4  5  1  0  0  0
  5  6  1  0  0  0
  6  7  1  0  0  0
  7  8  1  0  0  0
  7 19  1  0  0  0
  8  3  1  0  0  0
 19 20  2  0  0  0
 20 21  1  0  0  0
 21 22  2  0  0  0
 21 31  1  0  0  0
 22 23  1  0  0  0
 23 24  2  0  0  0
 23 25  1  0  0  0
 24 19  1  0  0  0
 25 26  2  0  0  0
 26 27  1  0  0  0
 27 28  2  0  0  0
 28 29  1  0  0  0
 29 30  2  0  0  0
 30 25  1  0  0  0
 31 32  1  0  0  0
 31 33  1  0  0  0
M  END
>  <minimizedAffinity>
-8.06635

>  <minimizedRMSD>
4.76742

$$$$
ZINC000067847368 ZINC67847368 MCULE-8338375840 MolPort-016-608-745 PubChem-50964388


 29 32  0  0  0  0  0  0  0  0999 V2000
  -50.2779   -1.5202  -19.9070 C   0  0  0  0  0  0  0  0  0  0  0  0
  -49.8975   -2.4211  -18.9771 N   0  0  0  0  0  0  0  0  0  0  0  0
  -49.4444   -3.4413  -19.7344 C   0  0  0  0  0  0  0  0  0  0  0  0
  -49.5437   -3.1991  -21.0540 N   0  0  0  0  0  0  0  0  0  0  0  0
  -50.0589   -1.9869  -21.1603 N   0  0  0  0  0  0  0  0  0  0  0  0
  -51.1336    2.1182  -16.6135 C   0  0  0  0  0  0  0  0  0  0  0  0
  -51.3868    1.4927  -17.9375 C   0  0  0  0  0  0  0  0  0  0  0  0
  -50.7152    0.3218  -18.2952 C   0  0  0  0  0  0  0  0  0  0  0  0
  -50.9512   -0.2558  -19.5480 C   0  0  0  0  0  0  0  0  0  0  0  0
  -51.8866    0.3368  -20.4049 C   0  0  0  0  0  0  0  0  0  0  0  0
  -52.5382    1.5076  -20.0126 C   0  0  0  0  0  0  0  0  0  0  0  0
  -53.3705    2.0515  -20.7831 O   0  0  0  0  0  0  0  0  0  0  0  0
  -52.2759    2.0584  -18.7972 N   0  0  0  0  0  0  0  0  0  0  0  0
  -52.7402    2.8855  -18.5337 H   0  0  0  0  0  0  0  0  0  0  0  0
  -50.2176   -1.3185  -22.4215 C   0  0  0  0  0  0  0  0  0  0  0  0
  -50.8833   -1.9646  -23.4728 C   0  0  0  0  0  0  0  0  0  0  0  0
  -51.0044   -1.3450  -24.7201 C   0  0  0  0  0  0  0  0  0  0  0  0
  -51.7223   -2.0329  -25.8243 C   0  0  0  0  0  0  0  0  0  0  0  0
  -50.4458   -0.0814  -24.9300 C   0  0  0  0  0  0  0  0  0  0  0  0
  -49.7621    0.5608  -23.8944 C   0  0  0  0  0  0  0  0  0  0  0  0
  -49.6419   -0.0586  -22.6474 C   0  0  0  0  0  0  0  0  0  0  0  0
  -48.9444   -4.7237  -19.1703 C   0  0  0  0  0  0  0  0  0  0  0  0
  -49.1054   -5.8331  -20.1954 C   0  0  0  0  0  0  0  0  0  0  0  0
  -48.4365   -7.0801  -19.7276 C   0  0  0  0  0  0  0  0  0  0  0  0
  -47.5555   -7.7538  -20.5802 C   0  0  0  0  0  0  0  0  0  0  0  0
  -46.9350   -8.9335  -20.1576 C   0  0  0  0  0  0  0  0  0  0  0  0
  -47.1984   -9.4443  -18.8829 C   0  0  0  0  0  0  0  0  0  0  0  0
  -48.0839   -8.7769  -18.0311 C   0  0  0  0  0  0  0  0  0  0  0  0
  -48.7046   -7.5973  -18.4533 C   0  0  0  0  0  0  0  0  0  0  0  0
  6  7  1  0  0  0
  7  8  2  0  0  0
  8  9  1  0  0  0
  9 10  2  0  0  0
  9  1  1  0  0  0
 10 11  1  0  0  0
 11 12  2  0  0  0
 11 13  1  0  0  0
 13  7  1  0  0  0
  1  2  2  0  0  0
  2  3  1  0  0  0
  3 22  1  0  0  0
  3  4  2  0  0  0
 22 23  1  0  0  0
 23 24  1  0  0  0
 24 25  2  0  0  0
 25 26  1  0  0  0
 26 27  2  0  0  0
 27 28  1  0  0  0
 28 29  2  0  0  0
 29 24  1  0  0  0
  4  5  1  0  0  0
  5 15  1  0  0  0
  5  1  1  0  0  0
 15 16  2  0  0  0
 16 17  1  0  0  0
 17 18  1  0  0  0
 17 19  2  0  0  0
 19 20  1  0  0  0
 20 21  2  0  0  0
 21 15  1  0  0  0
 13 14  1  0  0  0
M  END
>  <minimizedAffinity>
-8.06559

>  <minimizedRMSD>
1.96060

$$$$
ZINC000014607688


 32 35  0  0  0  0  0  0  0  0999 V2000
  -48.2042   -1.1390  -23.4293 C   0  0  0  0  0  0  0  0  0  0  0  0
  -49.3098   -0.3614  -23.5206 N   0  0  0  0  0  0  0  0  0  0  0  0
  -49.7724   -0.2136  -22.2908 N   0  0  0  0  0  0  0  0  0  0  0  0
  -49.0000   -0.8725  -21.4254 C   0  0  0  0  0  0  0  0  0  0  0  0
  -49.2841   -0.8760  -20.1029 N   0  0  0  0  0  0  0  0  0  0  0  0
  -50.3540   -0.2018  -19.6685 N   0  0  0  0  0  0  0  0  0  0  0  0
  -51.1772    0.4862  -20.5204 C   0  0  0  0  0  0  0  0  0  0  0  0
  -50.8683    0.4848  -21.9016 C   0  0  0  0  0  0  0  0  0  0  0  0
  -51.7195    1.1755  -22.9187 C   0  0  0  0  0  0  0  0  0  0  0  0
  -47.9669   -1.5009  -22.0936 C   0  0  0  0  0  0  0  0  0  0  0  0
  -46.9124   -2.3767  -21.5269 C   0  0  0  0  0  0  0  0  0  0  0  0
  -45.9264   -1.8434  -20.6828 C   0  0  0  0  0  0  0  0  0  0  0  0
  -44.9370   -2.6653  -20.1355 C   0  0  0  0  0  0  0  0  0  0  0  0
  -44.9242   -4.0312  -20.4262 C   0  0  0  0  0  0  0  0  0  0  0  0
  -45.9022   -4.5746  -21.2622 C   0  0  0  0  0  0  0  0  0  0  0  0
  -46.8909   -3.7507  -21.8075 C   0  0  0  0  0  0  0  0  0  0  0  0
  -52.3388    1.2175  -19.9623 C   0  0  0  0  0  0  0  0  0  0  0  0
  -53.4218    1.2510  -20.6044 O   0  0  0  0  0  0  0  0  0  0  0  0
  -52.2422    1.9695  -18.7442 N   0  0  0  0  0  0  0  0  0  0  0  0
  -52.8178    2.7647  -18.6693 H   0  0  0  0  0  0  0  0  0  0  0  0
  -51.3925    1.6818  -17.6231 C   0  0  0  0  0  0  0  0  0  0  0  0
  -50.6169    0.5119  -17.6166 C   0  0  0  0  0  0  0  0  0  0  0  0
  -49.8100    0.1809  -16.5211 C   0  0  0  0  0  0  0  0  0  0  0  0
  -49.7967    1.0182  -15.4065 C   0  0  0  0  0  0  0  0  0  0  0  0
  -50.5745    2.1762  -15.3887 C   0  0  0  0  0  0  0  0  0  0  0  0
  -51.3764    2.5254  -16.4817 C   0  0  0  0  0  0  0  0  0  0  0  0
  -49.0189   -0.9706  -16.5155 O   0  0  0  0  0  0  0  0  0  0  0  0
  -47.8912   -1.1214  -15.6638 C   0  0  0  0  0  0  0  0  0  0  0  0
  -52.1203    3.7103  -16.3659 O   0  0  0  0  0  0  0  0  0  0  0  0
  -51.8902    4.7313  -15.4060 C   0  0  0  0  0  0  0  0  0  0  0  0
  -48.3179   -1.8056  -25.8032 C   0  0  0  0  0  0  0  0  0  0  0  0
  -47.4021   -1.5277  -24.6263 C   0  0  0  0  0  0  0  0  0  0  0  0
 31 32  1  0  0  0
 32  1  1  0  0  0
  1  2  2  0  0  0
  2  3  1  0  0  0
  3  4  1  0  0  0
  4  5  1  0  0  0
  5  6  2  0  0  0
  6  7  1  0  0  0
  7 17  1  0  0  0
 17 18  2  0  0  0
 17 19  1  0  0  0
 19 21  1  0  0  0
 21 22  2  0  0  0
 22 23  1  0  0  0
 23 27  1  0  0  0
 27 28  1  0  0  0
 23 24  2  0  0  0
 24 25  1  0  0  0
 25 26  2  0  0  0
 26 29  1  0  0  0
 29 30  1  0  0  0
  7  8  2  0  0  0
  8  9  1  0  0  0
  4 10  2  0  0  0
 10 11  1  0  0  0
 11 12  2  0  0  0
 12 13  1  0  0  0
 13 14  2  0  0  0
 14 15  1  0  0  0
 15 16  2  0  0  0
 10  1  1  0  0  0
 16 11  1  0  0  0
  8  3  1  0  0  0
 26 21  1  0  0  0
 19 20  1  0  0  0
M  END
>  <minimizedAffinity>
-8.06187

>  <minimizedRMSD>
1.90923

$$$$
ZINC000031810754


 30 34  0  0  0  0  0  0  0  0999 V2000
  -47.3449   -1.3843  -24.1865 C   0  0  0  0  0  0  0  0  0  0  0  0
  -48.3354   -1.1957  -23.0904 C   0  0  0  0  0  0  0  0  0  0  0  0
  -49.3122   -0.2723  -23.1252 N   0  0  0  0  0  0  0  0  0  0  0  0
  -50.0075   -0.3831  -22.0049 N   0  0  0  0  0  0  0  0  0  0  0  0
  -49.5107   -1.3939  -21.2556 C   0  0  0  0  0  0  0  0  0  0  0  0
  -48.4098   -1.9327  -21.9204 C   0  0  0  0  0  0  0  0  0  0  0  0
  -47.5077   -3.0879  -21.5854 C   0  0  0  0  0  0  0  0  0  0  0  0
  -47.2270   -3.3484  -19.8059 S   0  0  0  0  0  0  0  0  0  0  0  0
  -48.8931   -4.0032  -19.5499 C   0  0  0  0  0  0  0  0  0  0  0  0
  -49.8133   -2.9086  -19.1571 C   0  0  0  0  0  0  0  0  0  0  0  0
  -50.3846   -2.9806  -18.0388 O   0  0  0  0  0  0  0  0  0  0  0  0
  -50.1063   -1.7987  -20.0111 N   0  0  0  0  0  0  0  0  0  0  0  0
  -50.8350   -1.2170  -19.6949 H   0  0  0  0  0  0  0  0  0  0  0  0
  -51.1521    0.4350  -21.7227 C   0  0  0  0  0  0  0  0  0  0  0  0
  -52.0160    0.7736  -22.7269 N   0  0  0  0  0  0  0  0  0  0  0  0
  -53.1029    1.5774  -22.4972 C   0  0  0  0  0  0  0  0  0  0  0  0
  -53.3437    2.0778  -21.2485 N   0  0  0  0  0  0  0  0  0  0  0  0
  -52.4813    1.7553  -20.2553 C   0  0  0  0  0  0  0  0  0  0  0  0
  -52.5200    2.1929  -18.9913 N   0  0  0  0  0  0  0  0  0  0  0  0
  -51.4071    1.6261  -18.4503 C   0  0  0  0  0  0  0  0  0  0  0  0
  -50.6918    0.8695  -19.3272 N   0  0  0  0  0  0  0  0  0  0  0  0
  -51.4065    0.9645  -20.4571 C   0  0  0  0  0  0  0  0  0  0  0  0
  -53.1855    2.7772  -18.5612 H   0  0  0  0  0  0  0  0  0  0  0  0
  -47.7971   -4.3524  -22.3462 C   0  0  0  0  0  0  0  0  0  0  0  0
  -46.7627   -5.2728  -22.5519 C   0  0  0  0  0  0  0  0  0  0  0  0
  -47.0045   -6.4617  -23.2465 C   0  0  0  0  0  0  0  0  0  0  0  0
  -48.2839   -6.7371  -23.7373 C   0  0  0  0  0  0  0  0  0  0  0  0
  -48.5173   -7.8891  -24.4103 F   0  0  0  0  0  0  0  0  0  0  0  0
  -49.3226   -5.8248  -23.5324 C   0  0  0  0  0  0  0  0  0  0  0  0
  -49.0814   -4.6364  -22.8381 C   0  0  0  0  0  0  0  0  0  0  0  0
  1  2  1  0  0  0
  2  3  2  0  0  0
  3  4  1  0  0  0
  4 14  1  0  0  0
 14 15  2  0  0  0
 15 16  1  0  0  0
 16 17  2  0  0  0
 17 18  1  0  0  0
 18 19  1  0  0  0
 19 20  1  0  0  0
 20 21  2  0  0  0
 21 22  1  0  0  0
  4  5  1  0  0  0
  5  6  2  0  0  0
  6  7  1  0  0  0
  7 24  1  0  0  0
 24 25  2  0  0  0
 25 26  1  0  0  0
 26 27  2  0  0  0
 27 28  1  0  0  0
 27 29  1  0  0  0
 29 30  2  0  0  0
  7  8  1  0  0  0
  8  9  1  0  0  0
  9 10  1  0  0  0
 10 11  2  0  0  0
 10 12  1  0  0  0
  6  2  1  0  0  0
 30 24  1  0  0  0
 22 14  1  0  0  0
 12  5  1  0  0  0
 22 18  2  0  0  0
 19 23  1  0  0  0
 12 13  1  0  0  0
M  END
>  <minimizedAffinity>
-8.06158

>  <minimizedRMSD>
0.56760

$$$$
ZINC000014182987 MolPort-009-650-068


 27 30  0  0  0  0  0  0  0  0999 V2000
  -50.2110   -1.9062  -17.5447 O   0  0  0  0  0  0  0  0  0  0  0  0
  -50.4824   -1.3742  -18.6535 C   0  0  0  0  0  0  0  0  0  0  0  0
  -50.2028   -2.1095  -19.8520 N   0  0  0  0  0  0  0  0  0  0  0  0
  -50.1857   -3.0917  -19.7867 H   0  0  0  0  0  0  0  0  0  0  0  0
  -51.1429   -0.0466  -18.6848 C   0  0  0  0  0  0  0  0  0  0  0  0
  -51.9196    0.2903  -19.8006 C   0  0  0  0  0  0  0  0  0  0  0  0
  -52.5783    1.5184  -19.8537 C   0  0  0  0  0  0  0  0  0  0  0  0
  -53.2699    1.8157  -20.8616 O   0  0  0  0  0  0  0  0  0  0  0  0
  -52.4764    2.3932  -18.8198 N   0  0  0  0  0  0  0  0  0  0  0  0
  -51.7396    2.1079  -17.7146 C   0  0  0  0  0  0  0  0  0  0  0  0
  -51.6589    3.0408  -16.6767 C   0  0  0  0  0  0  0  0  0  0  0  0
  -50.8958    2.7618  -15.5404 C   0  0  0  0  0  0  0  0  0  0  0  0
  -50.2085    1.5500  -15.4379 C   0  0  0  0  0  0  0  0  0  0  0  0
  -50.2842    0.6115  -16.4706 C   0  0  0  0  0  0  0  0  0  0  0  0
  -51.0524    0.8734  -17.6163 C   0  0  0  0  0  0  0  0  0  0  0  0
  -52.9482    3.2557  -18.8726 H   0  0  0  0  0  0  0  0  0  0  0  0
  -49.9467   -1.5312  -21.1353 C   0  0  0  0  0  0  0  0  0  0  0  0
  -48.9287   -0.6820  -21.3958 N   0  0  0  0  0  0  0  0  0  0  0  0
  -48.8659   -0.3219  -22.6763 N   0  0  0  0  0  0  0  0  0  0  0  0
  -49.8239   -0.8904  -23.4418 C   0  0  0  0  0  0  0  0  0  0  0  0
  -50.8183   -1.9027  -22.5230 S   0  0  0  0  0  0  0  0  0  0  0  0
  -49.9411   -0.6317  -24.9134 C   0  0  0  0  0  0  0  0  0  0  0  0
  -51.0885   -1.4094  -25.5687 C   0  0  0  0  0  0  0  0  0  0  0  0
  -50.7174   -2.8706  -25.8188 C   0  0  0  0  0  0  0  0  0  0  0  0
  -49.4425   -2.9580  -26.6495 C   0  0  0  0  0  0  0  0  0  0  0  0
  -48.2935   -2.2839  -25.9087 C   0  0  0  0  0  0  0  0  0  0  0  0
  -48.6141   -0.8105  -25.6606 C   0  0  0  0  0  0  0  0  0  0  0  0
  1  2  2  0  0  0
  2  3  1  0  0  0
  3 17  1  0  0  0
 17 18  2  0  0  0
 18 19  1  0  0  0
 19 20  2  0  0  0
 20 21  1  0  0  0
 20 22  1  0  0  0
 22 23  1  0  0  0
 23 24  1  0  0  0
 24 25  1  0  0  0
 25 26  1  0  0  0
 26 27  1  0  0  0
  2  5  1  0  0  0
  5  6  2  0  0  0
  6  7  1  0  0  0
  7  8  2  0  0  0
  7  9  1  0  0  0
  9 10  1  0  0  0
 10 11  2  0  0  0
 11 12  1  0  0  0
 12 13  2  0  0  0
 13 14  1  0  0  0
 14 15  2  0  0  0
 21 17  1  0  0  0
 27 22  1  0  0  0
 15  5  1  0  0  0
 15 10  1  0  0  0
  3  4  1  0  0  0
  9 16  1  0  0  0
M  END
>  <minimizedAffinity>
-8.05948

>  <minimizedRMSD>
1.04605

$$$$
ZINC000040009606 ZINC40009606 CSC027005518 MCULE-5704859829 MolPort-009-402-766 PubChem-45858595


 28 31  0  0  0  0  0  0  0  0999 V2000
  -50.1645   -1.8693  -20.8275 C   0  0  0  0  0  0  0  0  0  0  0  0
  -50.4788   -1.3372  -19.4670 C   0  0  0  0  0  0  0  0  0  0  0  0
  -50.3831   -2.1192  -18.4837 O   0  0  0  0  0  0  0  0  0  0  0  0
  -50.9227    0.0232  -19.2803 N   0  0  0  0  0  0  0  0  0  0  0  0
  -51.4264    0.7594  -20.4469 C   0  0  0  0  0  0  0  0  0  0  0  0
  -52.5002    1.7317  -20.0663 C   0  0  0  0  0  0  0  0  0  0  0  0
  -53.3489    2.0945  -20.9207 O   0  0  0  0  0  0  0  0  0  0  0  0
  -52.5182    2.3015  -18.7578 N   0  0  0  0  0  0  0  0  0  0  0  0
  -51.6245    1.8262  -17.7518 C   0  0  0  0  0  0  0  0  0  0  0  0
  -51.5566    2.4803  -16.5182 C   0  0  0  0  0  0  0  0  0  0  0  0
  -50.6840    2.0206  -15.5289 C   0  0  0  0  0  0  0  0  0  0  0  0
  -49.8791    0.9049  -15.7705 C   0  0  0  0  0  0  0  0  0  0  0  0
  -49.9499    0.2445  -17.0001 C   0  0  0  0  0  0  0  0  0  0  0  0
  -50.8275    0.6930  -18.0010 C   0  0  0  0  0  0  0  0  0  0  0  0
  -53.1505    3.0264  -18.5481 H   0  0  0  0  0  0  0  0  0  0  0  0
  -48.7679   -1.4421  -21.2455 C   0  0  0  0  0  0  0  0  0  0  0  0
  -47.4720   -4.1500  -27.9179 C   0  0  0  0  0  0  0  0  0  0  0  0
  -47.5583   -3.8743  -26.4599 C   0  0  0  0  0  0  0  0  0  0  0  0
  -48.1860   -2.7928  -25.9446 N   0  0  0  0  0  0  0  0  0  0  0  0
  -48.0546   -2.8895  -24.6356 N   0  0  0  0  0  0  0  0  0  0  0  0
  -47.3678   -3.9938  -24.3292 C   0  0  0  0  0  0  0  0  0  0  0  0
  -47.0100   -4.6874  -25.4658 C   0  0  0  0  0  0  0  0  0  0  0  0
  -47.0964   -4.3262  -23.0454 N   0  0  0  0  0  0  0  0  0  0  0  0
  -47.5345   -3.5136  -22.0405 C   0  0  0  0  0  0  0  0  0  0  0  0
  -47.2283   -3.8930  -20.6308 C   0  0  0  0  0  0  0  0  0  0  0  0
  -48.2629   -2.3331  -22.3401 C   0  0  0  0  0  0  0  0  0  0  0  0
  -48.5237   -2.0317  -23.6943 C   0  0  0  0  0  0  0  0  0  0  0  0
  -49.2875   -0.8098  -24.0951 C   0  0  0  0  0  0  0  0  0  0  0  0
 17 18  1  0  0  0
 18 19  2  0  0  0
 19 20  1  0  0  0
 20 21  1  0  0  0
 21 22  2  0  0  0
 21 23  1  0  0  0
 22 18  1  0  0  0
 23 24  2  0  0  0
 24 25  1  0  0  0
 24 26  1  0  0  0
 26 16  1  0  0  0
 26 27  2  0  0  0
 16  1  1  0  0  0
  1  2  1  0  0  0
  2  3  2  0  0  0
  2  4  1  0  0  0
  4  5  1  0  0  0
  5  6  1  0  0  0
  6  7  2  0  0  0
  6  8  1  0  0  0
  8  9  1  0  0  0
  9 10  2  0  0  0
 10 11  1  0  0  0
 11 12  2  0  0  0
 12 13  1  0  0  0
 13 14  2  0  0  0
 14  4  1  0  0  0
 14  9  1  0  0  0
 27 28  1  0  0  0
 27 20  1  0  0  0
  8 15  1  0  0  0
M  END
>  <minimizedAffinity>
-8.05655

>  <minimizedRMSD>
1.10879

$$$$
ZINC000005372517 ZINC05372517 PubChem-92261927


 32 34  0  0  0  0  0  0  0  0999 V2000
  -49.8558   -1.1453  -26.0834 C   0  0  0  0  0  0  0  0  0  0  0  0
  -49.6180   -0.8418  -24.6428 C   0  0  0  0  0  0  0  0  0  0  0  0
  -50.6225   -0.1966  -23.9188 C   0  0  0  0  0  0  0  0  0  0  0  0
  -50.4420    0.1060  -22.5673 C   0  0  0  0  0  0  0  0  0  0  0  0
  -51.4613    0.7537  -21.8778 C   0  0  0  0  0  0  0  0  0  0  0  0
  -51.2967    1.0675  -20.5341 C   0  0  0  0  0  0  0  0  0  0  0  0
  -52.2838    1.7230  -19.7885 C   0  0  0  0  0  0  0  0  0  0  0  0
  -53.3783    2.0541  -20.3186 O   0  0  0  0  0  0  0  0  0  0  0  0
  -52.0618    2.0081  -18.4775 N   0  0  0  0  0  0  0  0  0  0  0  0
  -50.9050    1.6824  -17.8385 C   0  0  0  0  0  0  0  0  0  0  0  0
  -50.7603    1.9748  -16.6236 O   0  0  0  0  0  0  0  0  0  0  0  0
  -49.8759    1.0264  -18.5167 C   0  0  0  0  0  0  0  0  0  0  0  0
  -50.0276    0.6953  -19.8684 C   0  0  0  0  0  0  0  0  0  0  0  0
  -49.0483    0.0469  -20.5776 N   0  0  0  0  0  0  0  0  0  0  0  0
  -49.2332   -0.2419  -21.9103 C   0  0  0  0  0  0  0  0  0  0  0  0
  -48.2299   -0.8867  -22.6562 C   0  0  0  0  0  0  0  0  0  0  0  0
  -48.4132   -1.1877  -24.0078 C   0  0  0  0  0  0  0  0  0  0  0  0
  -47.3132   -1.8760  -24.7427 C   0  0  0  0  0  0  0  0  0  0  0  0
  -52.7675    2.4694  -17.9692 H   0  0  0  0  0  0  0  0  0  0  0  0
  -47.7989   -0.3450  -19.9106 C   0  0  0  0  0  0  0  0  0  0  0  0
  -48.0581   -1.4118  -18.8527 C   0  0  0  0  0  0  0  0  0  0  0  0
  -46.9182   -1.5691  -18.0620 O   0  0  0  0  0  0  0  0  0  0  0  0
  -46.1765   -1.8561  -18.6173 H   0  0  0  0  0  0  0  0  0  0  0  0
  -48.4619   -2.7418  -19.4977 C   0  0  0  0  0  0  0  0  0  0  0  0
  -47.3652   -3.5972  -19.6344 O   0  0  0  0  0  0  0  0  0  0  0  0
  -47.0265   -3.8315  -18.7562 H   0  0  0  0  0  0  0  0  0  0  0  0
  -49.6228   -3.4399  -18.7818 C   0  0  0  0  0  0  0  0  0  0  0  0
  -50.6885   -2.5523  -18.6307 O   0  0  0  0  0  0  0  0  0  0  0  0
  -50.4137   -1.8094  -18.0708 H   0  0  0  0  0  0  0  0  0  0  0  0
  -49.2385   -4.0127  -17.4234 C   0  0  0  0  0  0  0  0  0  0  0  0
  -48.7173   -5.2979  -17.5732 O   0  0  0  0  0  0  0  0  0  0  0  0
  -49.3856   -5.8727  -17.9780 H   0  0  0  0  0  0  0  0  0  0  0  0
  1  2  1  0  0  0
  2  3  2  0  0  0
  3  4  1  0  0  0
  4  5  1  0  0  0
  5  6  2  0  0  0
  6  7  1  0  0  0
  6 13  1  0  0  0
  7  8  2  0  0  0
  7  9  1  0  0  0
  9 10  1  0  0  0
 10 11  2  0  0  0
 10 12  1  0  0  0
 12 13  2  0  0  0
 13 14  1  0  0  0
 14 15  1  0  0  0
 14 20  1  0  0  0
 15 16  1  0  0  0
 15  4  2  0  0  0
 16 17  2  0  0  0
 17 18  1  0  0  0
 17  2  1  0  0  0
 21 20  1  0  0  0
 21 24  1  0  0  0
 21 22  1  0  0  0
 24 27  1  0  0  0
 24 25  1  0  0  0
 27 30  1  0  0  0
 27 28  1  0  0  0
 30 31  1  0  0  0
  9 19  1  0  0  0
 31 32  1  0  0  0
 28 29  1  0  0  0
 25 26  1  0  0  0
 22 23  1  0  0  0
M  END
>  <minimizedAffinity>
-8.05577

>  <minimizedRMSD>
1.23287

$$$$
ZINC001529174993 MolPort-046-525-132


 30 33  0  0  0  0  0  0  0  0999 V2000
  -48.8422   -1.8097  -20.4470 N   0  0  0  0  0  0  0  0  0  0  0  0
  -50.0520   -1.4540  -19.7717 C   0  0  0  0  0  0  0  0  0  0  0  0
  -50.5602   -2.2630  -18.9511 O   0  0  0  0  0  0  0  0  0  0  0  0
  -48.4336   -2.6813  -20.2405 H   0  0  0  0  0  0  0  0  0  0  0  0
  -50.7120   -0.1312  -20.0181 C   0  0  0  0  0  0  0  0  0  0  0  0
  -51.5687   -0.2250  -21.1327 O   0  0  0  0  0  0  0  0  0  0  0  0
  -51.8452    1.0893  -21.5573 C   0  0  0  0  0  0  0  0  0  0  0  0
  -52.5822    1.8358  -20.4871 C   0  0  0  0  0  0  0  0  0  0  0  0
  -53.3714    2.7697  -20.7821 O   0  0  0  0  0  0  0  0  0  0  0  0
  -52.3403    1.4952  -19.1212 N   0  0  0  0  0  0  0  0  0  0  0  0
  -51.5038    0.3435  -18.7826 C   0  0  0  0  0  0  0  0  0  0  0  0
  -52.7388    2.0385  -18.4034 H   0  0  0  0  0  0  0  0  0  0  0  0
  -50.6010    0.6834  -17.6373 C   0  0  0  0  0  0  0  0  0  0  0  0
  -51.1424    1.2742  -16.4905 C   0  0  0  0  0  0  0  0  0  0  0  0
  -50.3174    1.5902  -15.4068 C   0  0  0  0  0  0  0  0  0  0  0  0
  -48.9478    1.3159  -15.4668 C   0  0  0  0  0  0  0  0  0  0  0  0
  -48.4020    0.7266  -16.6108 C   0  0  0  0  0  0  0  0  0  0  0  0
  -49.2261    0.4110  -17.6946 C   0  0  0  0  0  0  0  0  0  0  0  0
  -48.1803   -0.9533  -21.4246 C   0  0  0  0  0  0  0  0  0  0  0  0
  -48.7540   -1.0315  -23.8848 C   0  0  0  0  0  0  0  0  0  0  0  0
  -48.1238   -1.6196  -22.7635 C   0  0  0  0  0  0  0  0  0  0  0  0
  -47.4339   -2.8365  -22.8995 C   0  0  0  0  0  0  0  0  0  0  0  0
  -47.3957   -3.4513  -24.1493 C   0  0  0  0  0  0  0  0  0  0  0  0
  -46.7288   -4.7259  -24.4814 C   0  0  0  0  0  0  0  0  0  0  0  0
  -47.0151   -4.9101  -25.9790 C   0  0  0  0  0  0  0  0  0  0  0  0
  -47.8481   -3.7101  -26.4528 C   0  0  0  0  0  0  0  0  0  0  0  0
  -48.0121   -2.8921  -25.2347 C   0  0  0  0  0  0  0  0  0  0  0  0
  -48.6969   -1.6826  -25.1340 C   0  0  0  0  0  0  0  0  0  0  0  0
  -49.9696    0.9047  -24.8379 C   0  0  0  0  0  0  0  0  0  0  0  0
  -49.4257    0.1877  -23.7384 O   0  0  0  0  0  0  0  0  0  0  0  0
 29 30  1  0  0  0
 30 20  1  0  0  0
 20 21  2  0  0  0
 21 19  1  0  0  0
 19  1  1  0  0  0
  1  2  1  0  0  0
  2  3  2  0  0  0
  5  2  1  0  0  0
  5  6  1  0  0  0
  6  7  1  0  0  0
  7  8  1  0  0  0
  8  9  2  0  0  0
  8 10  1  0  0  0
 10 11  1  0  0  0
 11 13  1  0  0  0
 13 14  2  0  0  0
 14 15  1  0  0  0
 15 16  2  0  0  0
 16 17  1  0  0  0
 17 18  2  0  0  0
 21 22  1  0  0  0
 22 23  2  0  0  0
 23 24  1  0  0  0
 24 25  1  0  0  0
 25 26  1  0  0  0
 26 27  1  0  0  0
 27 28  2  0  0  0
 28 20  1  0  0  0
 11  5  1  0  0  0
 18 13  1  0  0  0
 27 23  1  0  0  0
  1  4  1  0  0  0
 10 12  1  0  0  0
M  END
>  <minimizedAffinity>
-8.03945

>  <minimizedRMSD>
2.06755

$$$$
ZINC000023755315 ZINC23755315 CSC028219200 MCULE-8163591876 MolPort-009-162-197 PubChem-31343882


 26 29  0  0  0  0  0  0  0  0999 V2000
  -52.3247    1.9748  -20.1765 C   0  0  0  0  0  0  0  0  0  0  0  0
  -53.4066    2.3850  -20.6745 O   0  0  0  0  0  0  0  0  0  0  0  0
  -52.0051    2.3469  -18.8283 N   0  0  0  0  0  0  0  0  0  0  0  0
  -52.2767    3.2469  -18.5358 H   0  0  0  0  0  0  0  0  0  0  0  0
  -48.8316   -1.5850  -24.5612 C   0  0  0  0  0  0  0  0  0  0  0  0
  -48.7478   -0.9413  -23.2622 N   0  0  0  0  0  0  0  0  0  0  0  0
  -47.6630   -0.9390  -22.4943 N   0  0  0  0  0  0  0  0  0  0  0  0
  -47.9588   -0.2446  -21.3663 C   0  0  0  0  0  0  0  0  0  0  0  0
  -47.0053   -0.0159  -20.2471 C   0  0  0  0  0  0  0  0  0  0  0  0
  -49.2643    0.1949  -21.4386 C   0  0  0  0  0  0  0  0  0  0  0  0
  -50.0751    0.9340  -20.5878 C   0  0  0  0  0  0  0  0  0  0  0  0
  -51.3990    1.1814  -21.0120 C   0  0  0  0  0  0  0  0  0  0  0  0
  -51.8247    0.6947  -22.2763 C   0  0  0  0  0  0  0  0  0  0  0  0
  -50.9796   -0.0257  -23.0752 N   0  0  0  0  0  0  0  0  0  0  0  0
  -49.7192   -0.2613  -22.6354 C   0  0  0  0  0  0  0  0  0  0  0  0
  -51.3255    1.5260  -17.8678 C   0  0  0  0  0  0  0  0  0  0  0  0
  -50.9001    0.2300  -18.2027 C   0  0  0  0  0  0  0  0  0  0  0  0
  -50.2588   -0.5667  -17.2535 C   0  0  0  0  0  0  0  0  0  0  0  0
  -50.0714   -0.0913  -15.9499 C   0  0  0  0  0  0  0  0  0  0  0  0
  -49.4607   -0.9204  -15.0050 O   0  0  0  0  0  0  0  0  0  0  0  0
  -49.2888   -2.3167  -15.2582 C   0  0  0  0  0  0  0  0  0  0  0  0
  -48.9005   -2.5456  -16.7209 C   0  0  0  0  0  0  0  0  0  0  0  0
  -49.7955   -1.8427  -17.5860 O   0  0  0  0  0  0  0  0  0  0  0  0
  -50.4944    1.1937  -15.6063 C   0  0  0  0  0  0  0  0  0  0  0  0
  -51.1243    2.0019  -16.5593 C   0  0  0  0  0  0  0  0  0  0  0  0
  -51.6938    3.7525  -16.0429 Br  0  0  0  0  0  0  0  0  0  0  0  0
  5  6  1  0  0  0
  6  7  1  0  0  0
  7  8  2  0  0  0
  8  9  1  0  0  0
  8 10  1  0  0  0
 10 11  2  0  0  0
 11 12  1  0  0  0
 12 13  2  0  0  0
 12  1  1  0  0  0
 13 14  1  0  0  0
 14 15  2  0  0  0
 15  6  1  0  0  0
 15 10  1  0  0  0
  1  2  2  0  0  0
  1  3  1  0  0  0
  3 16  1  0  0  0
 16 17  2  0  0  0
 17 18  1  0  0  0
 18 19  2  0  0  0
 19 20  1  0  0  0
 19 24  1  0  0  0
 20 21  1  0  0  0
 21 22  1  0  0  0
 22 23  1  0  0  0
 23 18  1  0  0  0
 24 25  2  0  0  0
 25 26  1  0  0  0
 25 16  1  0  0  0
  3  4  1  0  0  0
M  END
>  <minimizedAffinity>
-8.03523

>  <minimizedRMSD>
0.58209

$$$$
ZINC000008996339


 32 36  0  0  0  0  0  0  0  0999 V2000
  -47.7460   -3.6553  -18.3174 N   0  0  0  0  0  0  0  0  0  0  0  0
  -46.8911   -3.1643  -17.2974 C   0  0  0  0  0  0  0  0  0  0  0  0
  -46.0818   -3.8699  -16.6389 O   0  0  0  0  0  0  0  0  0  0  0  0
  -47.1044   -1.7513  -17.1233 C   0  0  0  0  0  0  0  0  0  0  0  0
  -46.4475   -0.9480  -16.1981 O   0  0  0  0  0  0  0  0  0  0  0  0
  -48.0465   -1.3491  -17.9758 C   0  0  0  0  0  0  0  0  0  0  0  0
  -48.5177   -2.5180  -18.8249 C   0  0  0  0  0  0  0  0  0  0  0  0
  -45.7954   -1.3179  -15.6359 H   0  0  0  0  0  0  0  0  0  0  0  0
  -48.2249   -2.2935  -20.2826 C   0  0  0  0  0  0  0  0  0  0  0  0
  -49.2167   -2.5754  -21.2287 C   0  0  0  0  0  0  0  0  0  0  0  0
  -48.9658   -2.3851  -22.5904 C   0  0  0  0  0  0  0  0  0  0  0  0
  -47.7186   -1.9158  -23.0125 C   0  0  0  0  0  0  0  0  0  0  0  0
  -47.4526   -1.7133  -24.4603 C   0  0  0  0  0  0  0  0  0  0  0  0
  -46.7208   -1.6399  -22.0735 C   0  0  0  0  0  0  0  0  0  0  0  0
  -46.9712   -1.8297  -20.7117 C   0  0  0  0  0  0  0  0  0  0  0  0
  -47.4978   -8.1119  -20.4667 C   0  0  0  0  0  0  0  0  0  0  0  0
  -47.8396   -6.9557  -19.5975 C   0  0  0  0  0  0  0  0  0  0  0  0
  -47.2885   -5.6932  -19.6923 C   0  0  0  0  0  0  0  0  0  0  0  0
  -47.9475   -5.0308  -18.6701 C   0  0  0  0  0  0  0  0  0  0  0  0
  -48.8107   -5.8462  -18.0359 N   0  0  0  0  0  0  0  0  0  0  0  0
  -48.7170   -6.9996  -18.6244 O   0  0  0  0  0  0  0  0  0  0  0  0
  -48.5558    0.0383  -18.0763 C   0  0  0  0  0  0  0  0  0  0  0  0
  -48.1179    0.9218  -17.2905 O   0  0  0  0  0  0  0  0  0  0  0  0
  -49.5669    0.4156  -19.0790 C   0  0  0  0  0  0  0  0  0  0  0  0
  -49.2854    0.7028  -20.4183 C   0  0  0  0  0  0  0  0  0  0  0  0
  -50.5292    0.9953  -20.9351 C   0  0  0  0  0  0  0  0  0  0  0  0
  -50.8987    1.3542  -22.2291 C   0  0  0  0  0  0  0  0  0  0  0  0
  -52.2632    1.5959  -22.4724 C   0  0  0  0  0  0  0  0  0  0  0  0
  -53.2104    1.4748  -21.4319 C   0  0  0  0  0  0  0  0  0  0  0  0
  -52.8049    1.1107  -20.1350 C   0  0  0  0  0  0  0  0  0  0  0  0
  -51.4473    0.8789  -19.9285 C   0  0  0  0  0  0  0  0  0  0  0  0
  -50.8563    0.5332  -18.8175 O   0  0  0  0  0  0  0  0  0  0  0  0
 16 17  1  0  0  0
 17 18  2  0  0  0
 18 19  1  0  0  0
 19  1  1  0  0  0
  1  2  1  0  0  0
  2  3  2  0  0  0
  2  4  1  0  0  0
  4  5  1  0  0  0
  4  6  2  0  0  0
  6 22  1  0  0  0
 22 23  2  0  0  0
 22 24  1  0  0  0
 24 25  2  0  0  0
 25 26  1  0  0  0
 26 27  2  0  0  0
 27 28  1  0  0  0
 28 29  2  0  0  0
 29 30  1  0  0  0
 30 31  2  0  0  0
 31 32  1  0  0  0
  6  7  1  0  0  0
  7  9  1  0  0  0
  9 10  2  0  0  0
 10 11  1  0  0  0
 11 12  2  0  0  0
 12 13  1  0  0  0
 12 14  1  0  0  0
 14 15  2  0  0  0
 19 20  2  0  0  0
 20 21  1  0  0  0
 21 17  1  0  0  0
  7  1  1  0  0  0
 15  9  1  0  0  0
 32 24  1  0  0  0
 31 26  1  0  0  0
  5  8  1  0  0  0
M  END
>  <minimizedAffinity>
-8.03503

>  <minimizedRMSD>
4.57126

$$$$
ZINC000096011142 ZINC96011142 CSC027537832 MCULE-9100666836 MolPort-028-801-490 PubChem-75455099


 31 34  0  0  0  0  0  0  0  0999 V2000
  -49.6348    1.1956  -15.6677 C   0  0  0  0  0  0  0  0  0  0  0  0
  -50.3968    2.3681  -15.5916 C   0  0  0  0  0  0  0  0  0  0  0  0
  -51.3215    2.6755  -16.5922 C   0  0  0  0  0  0  0  0  0  0  0  0
  -51.4898    1.8141  -17.6790 C   0  0  0  0  0  0  0  0  0  0  0  0
  -52.4423    2.1301  -18.6931 N   0  0  0  0  0  0  0  0  0  0  0  0
  -52.5422    1.3244  -19.8670 C   0  0  0  0  0  0  0  0  0  0  0  0
  -53.4446    1.5566  -20.7120 O   0  0  0  0  0  0  0  0  0  0  0  0
  -51.5300    0.2526  -20.1330 C   0  0  0  0  0  0  0  0  0  0  0  0
  -50.9360   -0.2600  -18.8918 N   0  0  0  0  0  0  0  0  0  0  0  0
  -50.5374   -1.6444  -18.8280 C   0  0  0  0  0  0  0  0  0  0  0  0
  -50.6352   -2.2709  -17.7377 O   0  0  0  0  0  0  0  0  0  0  0  0
  -50.7410    0.6273  -17.7666 C   0  0  0  0  0  0  0  0  0  0  0  0
  -49.8122    0.3306  -16.7562 C   0  0  0  0  0  0  0  0  0  0  0  0
  -53.0345    2.9087  -18.5825 H   0  0  0  0  0  0  0  0  0  0  0  0
  -50.0183   -2.3570  -20.0115 C   0  0  0  0  0  0  0  0  0  0  0  0
  -49.5323   -1.7523  -21.1083 N   0  0  0  0  0  0  0  0  0  0  0  0
  -49.1404   -2.6994  -21.9420 N   0  0  0  0  0  0  0  0  0  0  0  0
  -49.3602   -3.9111  -21.3894 C   0  0  0  0  0  0  0  0  0  0  0  0
  -49.9255   -3.7325  -20.1377 C   0  0  0  0  0  0  0  0  0  0  0  0
  -48.5546   -2.4705  -23.2426 C   0  0  0  0  0  0  0  0  0  0  0  0
  -47.7052   -3.4506  -23.7866 C   0  0  0  0  0  0  0  0  0  0  0  0
  -47.1128   -3.2778  -25.0384 C   0  0  0  0  0  0  0  0  0  0  0  0
  -47.3603   -2.1185  -25.7709 C   0  0  0  0  0  0  0  0  0  0  0  0
  -46.7862   -1.9489  -26.9859 F   0  0  0  0  0  0  0  0  0  0  0  0
  -48.2010   -1.1335  -25.2526 C   0  0  0  0  0  0  0  0  0  0  0  0
  -48.8008   -1.2945  -23.9990 C   0  0  0  0  0  0  0  0  0  0  0  0
  -49.6911   -0.1964  -23.5259 C   0  0  0  0  0  0  0  0  0  0  0  0
  -48.6605    0.8774  -14.6112 C   0  0  0  0  0  0  0  0  0  0  0  0
  -48.1768   -0.2856  -14.5278 O   0  0  0  0  0  0  0  0  0  0  0  0
  -48.4328    1.7026  -12.3024 C   0  0  0  0  0  0  0  0  0  0  0  0
  -48.2748    1.8668  -13.7036 O   0  0  0  0  0  0  0  0  0  0  0  0
 30 31  1  0  0  0
 31 28  1  0  0  0
 28 29  2  0  0  0
 28  1  1  0  0  0
  1  2  2  0  0  0
  2  3  1  0  0  0
  3  4  2  0  0  0
  4  5  1  0  0  0
  5  6  1  0  0  0
  6  7  2  0  0  0
  6  8  1  0  0  0
  8  9  1  0  0  0
  9 10  1  0  0  0
  9 12  1  0  0  0
 10 11  2  0  0  0
 10 15  1  0  0  0
 15 16  2  0  0  0
 16 17  1  0  0  0
 17 18  1  0  0  0
 17 20  1  0  0  0
 18 19  2  0  0  0
 19 15  1  0  0  0
 20 21  2  0  0  0
 21 22  1  0  0  0
 22 23  2  0  0  0
 23 24  1  0  0  0
 23 25  1  0  0  0
 25 26  2  0  0  0
 26 27  1  0  0  0
 26 20  1  0  0  0
 12 13  2  0  0  0
 12  4  1  0  0  0
 13  1  1  0  0  0
  5 14  1  0  0  0
M  END
>  <minimizedAffinity>
-8.03475

>  <minimizedRMSD>
0.63744

$$$$
ZINC000002970981 ZINC02970981 ChemDiv-K284-1944 MCULE-9607552090 MolPort-007-910-227 PubChem-5199573


 35 39  0  0  0  0  0  0  0  0999 V2000
  -50.4104    0.0197  -22.5101 C   0  0  0  0  0  0  0  0  0  0  0  0
  -51.1492   -0.6158  -23.4570 N   0  0  0  0  0  0  0  0  0  0  0  0
  -50.7376   -1.7826  -24.0073 C   0  0  0  0  0  0  0  0  0  0  0  0
  -51.5212   -2.4155  -24.9766 C   0  0  0  0  0  0  0  0  0  0  0  0
  -51.0959   -3.6219  -25.5409 C   0  0  0  0  0  0  0  0  0  0  0  0
  -49.8869   -4.1975  -25.1374 C   0  0  0  0  0  0  0  0  0  0  0  0
  -49.0996   -3.5680  -24.1684 C   0  0  0  0  0  0  0  0  0  0  0  0
  -49.5211   -2.3575  -23.5982 C   0  0  0  0  0  0  0  0  0  0  0  0
  -48.7619   -1.6906  -22.6276 C   0  0  0  0  0  0  0  0  0  0  0  0
  -47.6606   -2.1794  -22.2468 O   0  0  0  0  0  0  0  0  0  0  0  0
  -49.2134   -0.5105  -22.0973 N   0  0  0  0  0  0  0  0  0  0  0  0
  -51.0533    1.5503  -21.8224 S   0  0  0  0  0  0  0  0  0  0  0  0
  -51.9462    0.6617  -20.5129 C   0  0  0  0  0  0  0  0  0  0  0  0
  -51.1692    1.1638  -18.1720 N   0  0  0  0  0  0  0  0  0  0  0  0
  -52.0095    1.4948  -19.2841 C   0  0  0  0  0  0  0  0  0  0  0  0
  -52.7806    2.4902  -19.2491 O   0  0  0  0  0  0  0  0  0  0  0  0
  -50.5640    0.3963  -18.2903 H   0  0  0  0  0  0  0  0  0  0  0  0
  -50.9206    3.7011  -13.0389 C   0  0  0  0  0  0  0  0  0  0  0  0
  -50.9972    3.0738  -14.3884 C   0  0  0  0  0  0  0  0  0  0  0  0
  -50.6231    1.7347  -14.5326 C   0  0  0  0  0  0  0  0  0  0  0  0
  -50.6836    1.1177  -15.7848 C   0  0  0  0  0  0  0  0  0  0  0  0
  -51.1170    1.8325  -16.9054 C   0  0  0  0  0  0  0  0  0  0  0  0
  -51.4939    3.1754  -16.7592 C   0  0  0  0  0  0  0  0  0  0  0  0
  -51.4364    3.7994  -15.5094 C   0  0  0  0  0  0  0  0  0  0  0  0
  -51.9208    5.4838  -15.3857 Cl  0  0  0  0  0  0  0  0  0  0  0  0
  -48.3869    0.1878  -21.1073 C   0  0  0  0  0  0  0  0  0  0  0  0
  -48.5109   -0.4181  -19.7432 C   0  0  0  0  0  0  0  0  0  0  0  0
  -47.7569    0.1342  -18.6838 C   0  0  0  0  0  0  0  0  0  0  0  0
  -47.8174   -0.4216  -17.3935 C   0  0  0  0  0  0  0  0  0  0  0  0
  -48.6406   -1.5287  -17.2095 C   0  0  0  0  0  0  0  0  0  0  0  0
  -48.8734   -2.2418  -16.0507 O   0  0  0  0  0  0  0  0  0  0  0  0
  -49.7934   -3.2991  -16.3572 C   0  0  0  0  0  0  0  0  0  0  0  0
  -50.0729   -3.1546  -17.7571 O   0  0  0  0  0  0  0  0  0  0  0  0
  -49.3563   -2.0722  -18.2266 C   0  0  0  0  0  0  0  0  0  0  0  0
  -49.3157   -1.5549  -19.5185 C   0  0  0  0  0  0  0  0  0  0  0  0
 18 19  1  0  0  0
 19 20  2  0  0  0
 20 21  1  0  0  0
 21 22  2  0  0  0
 22 14  1  0  0  0
 22 23  1  0  0  0
 14 15  1  0  0  0
 15 16  2  0  0  0
 15 13  1  0  0  0
 13 12  1  0  0  0
 12  1  1  0  0  0
  1  2  2  0  0  0
  2  3  1  0  0  0
  3  4  2  0  0  0
  4  5  1  0  0  0
  5  6  2  0  0  0
  6  7  1  0  0  0
  7  8  2  0  0  0
  8  9  1  0  0  0
  8  3  1  0  0  0
  9 10  2  0  0  0
  9 11  1  0  0  0
 11 26  1  0  0  0
 11  1  1  0  0  0
 26 27  1  0  0  0
 27 28  2  0  0  0
 28 29  1  0  0  0
 29 30  2  0  0  0
 30 31  1  0  0  0
 31 32  1  0  0  0
 32 33  1  0  0  0
 33 34  1  0  0  0
 34 35  2  0  0  0
 34 30  1  0  0  0
 35 27  1  0  0  0
 23 24  2  0  0  0
 24 25  1  0  0  0
 24 19  1  0  0  0
 14 17  1  0  0  0
M  END
>  <minimizedAffinity>
-8.03076

>  <minimizedRMSD>
2.22790

$$$$
ZINC000031810539


 30 34  0  0  0  0  0  0  0  0999 V2000
  -48.9715   -0.3540  -25.2763 C   0  0  0  0  0  0  0  0  0  0  0  0
  -49.6141   -0.5352  -23.9442 C   0  0  0  0  0  0  0  0  0  0  0  0
  -50.2841    0.4603  -23.3389 N   0  0  0  0  0  0  0  0  0  0  0  0
  -50.6562    0.0312  -22.1469 N   0  0  0  0  0  0  0  0  0  0  0  0
  -50.2412   -1.2420  -21.9678 C   0  0  0  0  0  0  0  0  0  0  0  0
  -49.5831   -1.6712  -23.1284 C   0  0  0  0  0  0  0  0  0  0  0  0
  -48.8560   -2.9806  -23.3933 C   0  0  0  0  0  0  0  0  0  0  0  0
  -49.6882   -4.4183  -22.6614 S   0  0  0  0  0  0  0  0  0  0  0  0
  -49.0017   -3.9941  -21.0521 C   0  0  0  0  0  0  0  0  0  0  0  0
  -50.0196   -3.2261  -20.2991 C   0  0  0  0  0  0  0  0  0  0  0  0
  -50.4359   -3.6875  -19.2054 O   0  0  0  0  0  0  0  0  0  0  0  0
  -50.5396   -1.9796  -20.7689 N   0  0  0  0  0  0  0  0  0  0  0  0
  -51.2070   -1.5599  -20.1792 H   0  0  0  0  0  0  0  0  0  0  0  0
  -51.4081    0.8448  -21.2350 C   0  0  0  0  0  0  0  0  0  0  0  0
  -52.4725    1.5745  -21.6866 N   0  0  0  0  0  0  0  0  0  0  0  0
  -53.1934    2.3852  -20.8481 C   0  0  0  0  0  0  0  0  0  0  0  0
  -52.8527    2.4972  -19.5294 N   0  0  0  0  0  0  0  0  0  0  0  0
  -51.7898    1.7865  -19.0831 C   0  0  0  0  0  0  0  0  0  0  0  0
  -51.2744    1.8117  -17.8483 N   0  0  0  0  0  0  0  0  0  0  0  0
  -50.2011    0.9825  -17.9613 C   0  0  0  0  0  0  0  0  0  0  0  0
  -50.0373    0.4594  -19.2073 N   0  0  0  0  0  0  0  0  0  0  0  0
  -51.0668    0.9807  -19.8889 C   0  0  0  0  0  0  0  0  0  0  0  0
  -51.5916    2.3054  -17.0578 H   0  0  0  0  0  0  0  0  0  0  0  0
  -48.5855   -3.2622  -24.8412 C   0  0  0  0  0  0  0  0  0  0  0  0
  -47.2877   -3.6021  -25.2392 C   0  0  0  0  0  0  0  0  0  0  0  0
  -47.0123   -3.8716  -26.5830 C   0  0  0  0  0  0  0  0  0  0  0  0
  -48.0348   -3.8042  -27.5340 C   0  0  0  0  0  0  0  0  0  0  0  0
  -49.3339   -3.4687  -27.1418 C   0  0  0  0  0  0  0  0  0  0  0  0
  -50.3244   -3.4047  -28.0632 F   0  0  0  0  0  0  0  0  0  0  0  0
  -49.6107   -3.1993  -25.7986 C   0  0  0  0  0  0  0  0  0  0  0  0
  1  2  1  0  0  0
  2  3  2  0  0  0
  3  4  1  0  0  0
  4 14  1  0  0  0
 14 15  2  0  0  0
 15 16  1  0  0  0
 16 17  2  0  0  0
 17 18  1  0  0  0
 18 19  1  0  0  0
 19 20  1  0  0  0
 20 21  2  0  0  0
 21 22  1  0  0  0
  4  5  1  0  0  0
  5  6  2  0  0  0
  6  7  1  0  0  0
  7 24  1  0  0  0
 24 25  2  0  0  0
 25 26  1  0  0  0
 26 27  2  0  0  0
 27 28  1  0  0  0
 28 29  1  0  0  0
 28 30  2  0  0  0
  7  8  1  0  0  0
  8  9  1  0  0  0
  9 10  1  0  0  0
 10 11  2  0  0  0
 10 12  1  0  0  0
  6  2  1  0  0  0
 30 24  1  0  0  0
 22 14  1  0  0  0
 12  5  1  0  0  0
 22 18  2  0  0  0
 19 23  1  0  0  0
 12 13  1  0  0  0
M  END
>  <minimizedAffinity>
-8.02988

>  <minimizedRMSD>
1.83657

$$$$
ZINC000065283276 ZINC65283276 ChemDiv-T480-0419 MolPort-010-948-687 PubChem-53190182


 30 34  0  0  0  0  0  0  0  0999 V2000
  -47.3322   -2.1094  -23.8790 C   0  0  0  0  0  0  0  0  0  0  0  0
  -47.5759   -1.2711  -22.6724 C   0  0  0  0  0  0  0  0  0  0  0  0
  -48.7545   -0.6375  -22.2880 C   0  0  0  0  0  0  0  0  0  0  0  0
  -48.6137    0.1107  -21.1112 C   0  0  0  0  0  0  0  0  0  0  0  0
  -47.3516    0.0920  -20.5281 C   0  0  0  0  0  0  0  0  0  0  0  0
  -46.4062   -0.8835  -21.5303 S   0  0  0  0  0  0  0  0  0  0  0  0
  -49.6579    0.8082  -20.6032 N   0  0  0  0  0  0  0  0  0  0  0  0
  -50.8684    0.7827  -21.2292 C   0  0  0  0  0  0  0  0  0  0  0  0
  -51.0241    0.0681  -22.3820 N   0  0  0  0  0  0  0  0  0  0  0  0
  -50.0036   -0.6505  -22.9272 C   0  0  0  0  0  0  0  0  0  0  0  0
  -50.2341   -1.3975  -24.1210 N   0  0  0  0  0  0  0  0  0  0  0  0
  -49.9946   -0.7432  -25.4107 C   0  0  0  0  0  0  0  0  0  0  0  0
  -50.5381   -1.5816  -26.5669 C   0  0  0  0  0  0  0  0  0  0  0  0
  -50.2304   -2.9334  -26.3645 O   0  0  0  0  0  0  0  0  0  0  0  0
  -51.1022   -3.3572  -25.3528 C   0  0  0  0  0  0  0  0  0  0  0  0
  -50.6477   -2.8002  -24.0045 C   0  0  0  0  0  0  0  0  0  0  0  0
  -52.0026    1.5548  -20.6889 C   0  0  0  0  0  0  0  0  0  0  0  0
  -53.0064    1.7633  -21.4200 O   0  0  0  0  0  0  0  0  0  0  0  0
  -51.9754    2.1286  -19.3748 N   0  0  0  0  0  0  0  0  0  0  0  0
  -52.4061    3.0066  -19.2609 H   0  0  0  0  0  0  0  0  0  0  0  0
  -51.3786    1.5405  -18.2124 C   0  0  0  0  0  0  0  0  0  0  0  0
  -51.3368    2.2781  -17.0226 C   0  0  0  0  0  0  0  0  0  0  0  0
  -50.7946    1.7189  -15.8605 C   0  0  0  0  0  0  0  0  0  0  0  0
  -50.3000    0.4130  -15.8846 C   0  0  0  0  0  0  0  0  0  0  0  0
  -49.7735   -0.1746  -14.7310 O   0  0  0  0  0  0  0  0  0  0  0  0
  -49.5359   -1.5829  -14.6697 C   0  0  0  0  0  0  0  0  0  0  0  0
  -48.9831   -2.0853  -16.0055 C   0  0  0  0  0  0  0  0  0  0  0  0
  -49.7976   -1.6199  -17.0841 O   0  0  0  0  0  0  0  0  0  0  0  0
  -50.3299   -0.3278  -17.0737 C   0  0  0  0  0  0  0  0  0  0  0  0
  -50.8853    0.2258  -18.2290 C   0  0  0  0  0  0  0  0  0  0  0  0
  1  2  1  0  0  0
  2  3  2  0  0  0
  3  4  1  0  0  0
  4  5  2  0  0  0
  4  7  1  0  0  0
  5  6  1  0  0  0
  6  2  1  0  0  0
  7  8  2  0  0  0
  8  9  1  0  0  0
  8 17  1  0  0  0
  9 10  2  0  0  0
 10 11  1  0  0  0
 10  3  1  0  0  0
 11 12  1  0  0  0
 12 13  1  0  0  0
 13 14  1  0  0  0
 14 15  1  0  0  0
 15 16  1  0  0  0
 16 11  1  0  0  0
 17 18  2  0  0  0
 17 19  1  0  0  0
 19 21  1  0  0  0
 21 22  2  0  0  0
 22 23  1  0  0  0
 23 24  2  0  0  0
 24 25  1  0  0  0
 25 26  1  0  0  0
 26 27  1  0  0  0
 27 28  1  0  0  0
 28 29  1  0  0  0
 29 30  2  0  0  0
 29 24  1  0  0  0
 30 21  1  0  0  0
 19 20  1  0  0  0
M  END
>  <minimizedAffinity>
-8.02854

>  <minimizedRMSD>
1.43939

$$$$
ZINC000031806781


 33 37  0  0  0  0  0  0  0  0999 V2000
  -47.6203   -3.0870  -21.6978 C   0  0  0  0  0  0  0  0  0  0  0  0
  -47.3299   -3.3888  -19.9267 S   0  0  0  0  0  0  0  0  0  0  0  0
  -49.0048   -4.0094  -19.6651 C   0  0  0  0  0  0  0  0  0  0  0  0
  -49.8845   -2.8976  -19.2297 C   0  0  0  0  0  0  0  0  0  0  0  0
  -50.4353   -2.9764  -18.1016 O   0  0  0  0  0  0  0  0  0  0  0  0
  -50.1546   -1.7585  -20.0522 N   0  0  0  0  0  0  0  0  0  0  0  0
  -49.5995   -1.3739  -21.3218 C   0  0  0  0  0  0  0  0  0  0  0  0
  -48.5497   -1.9534  -22.0340 C   0  0  0  0  0  0  0  0  0  0  0  0
  -48.5108   -1.2302  -23.2146 C   0  0  0  0  0  0  0  0  0  0  0  0
  -47.5675   -1.4442  -24.3468 C   0  0  0  0  0  0  0  0  0  0  0  0
  -49.4665   -0.2842  -23.2157 N   0  0  0  0  0  0  0  0  0  0  0  0
  -50.1095   -0.3633  -22.0621 N   0  0  0  0  0  0  0  0  0  0  0  0
  -50.8288   -1.1386  -19.6910 H   0  0  0  0  0  0  0  0  0  0  0  0
  -51.2225    0.4829  -21.7393 C   0  0  0  0  0  0  0  0  0  0  0  0
  -52.1007    0.8615  -22.7165 N   0  0  0  0  0  0  0  0  0  0  0  0
  -53.1580    1.6920  -22.4479 C   0  0  0  0  0  0  0  0  0  0  0  0
  -53.3536    2.1798  -21.1862 N   0  0  0  0  0  0  0  0  0  0  0  0
  -52.4769    1.8174  -20.2198 C   0  0  0  0  0  0  0  0  0  0  0  0
  -52.4721    2.2361  -18.9487 N   0  0  0  0  0  0  0  0  0  0  0  0
  -51.3633    1.6292  -18.4440 C   0  0  0  0  0  0  0  0  0  0  0  0
  -50.6919    0.8664  -19.3497 N   0  0  0  0  0  0  0  0  0  0  0  0
  -51.4307    0.9994  -20.4600 C   0  0  0  0  0  0  0  0  0  0  0  0
  -53.1096    2.8325  -18.4936 H   0  0  0  0  0  0  0  0  0  0  0  0
  -46.6762   -6.1632  -23.7004 C   0  0  0  0  0  0  0  0  0  0  0  0
  -47.9205   -6.6994  -24.0345 C   0  0  0  0  0  0  0  0  0  0  0  0
  -49.0935   -6.0677  -23.6189 C   0  0  0  0  0  0  0  0  0  0  0  0
  -49.0421   -4.8863  -22.8612 C   0  0  0  0  0  0  0  0  0  0  0  0
  -47.7841   -4.3376  -22.5230 C   0  0  0  0  0  0  0  0  0  0  0  0
  -46.6163   -4.9841  -22.9436 C   0  0  0  0  0  0  0  0  0  0  0  0
  -44.4162   -7.0712  -23.2696 C   0  0  0  0  0  0  0  0  0  0  0  0
  -45.5191   -6.8186  -24.1296 O   0  0  0  0  0  0  0  0  0  0  0  0
  -50.2208   -4.2542  -22.4484 O   0  0  0  0  0  0  0  0  0  0  0  0
  -51.2991   -3.9748  -23.3307 C   0  0  0  0  0  0  0  0  0  0  0  0
 30 31  1  0  0  0
 31 24  1  0  0  0
 24 25  2  0  0  0
 25 26  1  0  0  0
 26 27  2  0  0  0
 27 32  1  0  0  0
 32 33  1  0  0  0
 27 28  1  0  0  0
  1 28  1  0  0  0
  1  2  1  0  0  0
  2  3  1  0  0  0
  3  4  1  0  0  0
  4  5  2  0  0  0
  4  6  1  0  0  0
  6  7  1  0  0  0
  7  8  2  0  0  0
  8  9  1  0  0  0
  9 10  1  0  0  0
  9 11  2  0  0  0
 11 12  1  0  0  0
 12 14  1  0  0  0
 14 15  2  0  0  0
 15 16  1  0  0  0
 16 17  2  0  0  0
 17 18  1  0  0  0
 18 19  1  0  0  0
 19 20  1  0  0  0
 20 21  2  0  0  0
 21 22  1  0  0  0
 28 29  2  0  0  0
 29 24  1  0  0  0
  8  1  1  0  0  0
 22 14  1  0  0  0
 12  7  1  0  0  0
 22 18  2  0  0  0
  6 13  1  0  0  0
 19 23  1  0  0  0
M  END
>  <minimizedAffinity>
-8.01958

>  <minimizedRMSD>
0.59191

$$$$
ZINC000009305088 CHEMBL1468769 CSC026749162 MCULE-2734999692 MolPort-000-208-662 PubChem-1077467


 35 39  0  0  0  0  0  0  0  0999 V2000
  -48.4139    0.0946  -17.4067 N   0  0  0  0  0  0  0  0  0  0  0  0
  -48.8407    0.0399  -18.6294 C   0  0  0  0  0  0  0  0  0  0  0  0
  -48.0433   -0.5127  -19.6043 N   0  0  0  0  0  0  0  0  0  0  0  0
  -48.4537   -0.5578  -20.9109 C   0  0  0  0  0  0  0  0  0  0  0  0
  -49.7107   -0.0518  -21.2749 C   0  0  0  0  0  0  0  0  0  0  0  0
  -50.5314    0.4974  -20.2935 C   0  0  0  0  0  0  0  0  0  0  0  0
  -50.1193    0.5538  -18.9602 C   0  0  0  0  0  0  0  0  0  0  0  0
  -50.1093   -0.1167  -22.6184 C   0  0  0  0  0  0  0  0  0  0  0  0
  -51.2399    0.3347  -22.9603 O   0  0  0  0  0  0  0  0  0  0  0  0
  -49.2722   -0.6682  -23.5513 N   0  0  0  0  0  0  0  0  0  0  0  0
  -49.6586   -0.7343  -24.8608 C   0  0  0  0  0  0  0  0  0  0  0  0
  -48.8211   -1.2931  -25.8277 C   0  0  0  0  0  0  0  0  0  0  0  0
  -47.5758   -1.7888  -25.4475 C   0  0  0  0  0  0  0  0  0  0  0  0
  -47.1817   -1.7212  -24.1128 C   0  0  0  0  0  0  0  0  0  0  0  0
  -48.0425   -1.1557  -23.1692 C   0  0  0  0  0  0  0  0  0  0  0  0
  -47.6534   -1.0940  -21.8710 N   0  0  0  0  0  0  0  0  0  0  0  0
  -47.5253   -0.2630  -17.1789 H   0  0  0  0  0  0  0  0  0  0  0  0
  -51.0540    1.1479  -17.9675 C   0  0  0  0  0  0  0  0  0  0  0  0
  -52.2983    1.0020  -18.1208 O   0  0  0  0  0  0  0  0  0  0  0  0
  -50.5675    1.8688  -16.8308 N   0  0  0  0  0  0  0  0  0  0  0  0
  -49.5943    1.9477  -16.7047 H   0  0  0  0  0  0  0  0  0  0  0  0
  -51.4486    2.4902  -15.8532 C   0  0  0  0  0  0  0  0  0  0  0  0
  -51.9838    3.8069  -16.3943 C   0  0  0  0  0  0  0  0  0  0  0  0
  -51.3245    4.9033  -15.5867 C   0  0  0  0  0  0  0  0  0  0  0  0
  -50.9618    4.2624  -14.2694 C   0  0  0  0  0  0  0  0  0  0  0  0
  -50.6559    2.8190  -14.6014 C   0  0  0  0  0  0  0  0  0  0  0  0
  -46.7414   -1.0866  -19.2445 C   0  0  0  0  0  0  0  0  0  0  0  0
  -46.9205   -2.4624  -18.6190 C   0  0  0  0  0  0  0  0  0  0  0  0
  -46.8946   -3.5462  -19.6947 C   0  0  0  0  0  0  0  0  0  0  0  0
  -47.9595   -4.5457  -19.5473 N   0  0  0  0  0  0  0  0  0  0  0  0
  -49.1194   -4.0327  -18.7976 C   0  0  0  0  0  0  0  0  0  0  0  0
  -50.1533   -3.3771  -19.7200 C   0  0  0  0  0  0  0  0  0  0  0  0
  -50.5283   -4.2761  -20.7288 O   0  0  0  0  0  0  0  0  0  0  0  0
  -49.4097   -4.4013  -21.5647 C   0  0  0  0  0  0  0  0  0  0  0  0
  -48.3050   -5.1707  -20.8351 C   0  0  0  0  0  0  0  0  0  0  0  0
  1  2  2  0  0  0
  2  3  1  0  0  0
  3 27  1  0  0  0
  3  4  1  0  0  0
 27 28  1  0  0  0
 28 29  1  0  0  0
 29 30  1  0  0  0
 30 31  1  0  0  0
 31 32  1  0  0  0
 32 33  1  0  0  0
 33 34  1  0  0  0
 34 35  1  0  0  0
 35 30  1  0  0  0
  4  5  2  0  0  0
  5  6  1  0  0  0
  5  8  1  0  0  0
  6  7  2  0  0  0
  7 18  1  0  0  0
  7  2  1  0  0  0
 18 19  2  0  0  0
 18 20  1  0  0  0
 20 22  1  0  0  0
 22 23  1  0  0  0
 23 24  1  0  0  0
 24 25  1  0  0  0
 25 26  1  0  0  0
 26 22  1  0  0  0
  8  9  2  0  0  0
  8 10  1  0  0  0
 10 11  1  0  0  0
 11 12  2  0  0  0
 12 13  1  0  0  0
 13 14  2  0  0  0
 14 15  1  0  0  0
 15 16  2  0  0  0
 15 10  1  0  0  0
 16  4  1  0  0  0
  1 17  1  0  0  0
 20 21  1  0  0  0
M  END
>  <minimizedAffinity>
-8.01342

>  <minimizedRMSD>
2.09779

$$$$
ZINC000003831423 ZINC03831423 PubChem-7048776


 32 34  0  0  0  0  0  0  0  0999 V2000
  -48.9991   -0.7088  -25.5812 C   0  0  0  0  0  0  0  0  0  0  0  0
  -49.1081   -0.6632  -24.0946 C   0  0  0  0  0  0  0  0  0  0  0  0
  -50.0433    0.1989  -23.5174 C   0  0  0  0  0  0  0  0  0  0  0  0
  -50.1798    0.2735  -22.1294 C   0  0  0  0  0  0  0  0  0  0  0  0
  -49.3648   -0.5316  -21.2886 C   0  0  0  0  0  0  0  0  0  0  0  0
  -48.4270   -1.3926  -21.8844 C   0  0  0  0  0  0  0  0  0  0  0  0
  -48.2949   -1.4634  -23.2732 C   0  0  0  0  0  0  0  0  0  0  0  0
  -47.2842   -2.3971  -23.8484 C   0  0  0  0  0  0  0  0  0  0  0  0
  -49.4976   -0.4629  -19.9220 N   0  0  0  0  0  0  0  0  0  0  0  0
  -50.4133    0.3872  -19.3713 C   0  0  0  0  0  0  0  0  0  0  0  0
  -50.5759    0.4940  -18.0262 N   0  0  0  0  0  0  0  0  0  0  0  0
  -51.4952    1.3461  -17.4978 C   0  0  0  0  0  0  0  0  0  0  0  0
  -51.6258    1.4246  -16.2491 O   0  0  0  0  0  0  0  0  0  0  0  0
  -52.2759    2.1152  -18.3073 N   0  0  0  0  0  0  0  0  0  0  0  0
  -52.1766    2.0709  -19.6624 C   0  0  0  0  0  0  0  0  0  0  0  0
  -52.9200    2.8017  -20.3692 O   0  0  0  0  0  0  0  0  0  0  0  0
  -51.2503    1.2149  -20.2539 C   0  0  0  0  0  0  0  0  0  0  0  0
  -51.0964    1.1207  -21.5956 N   0  0  0  0  0  0  0  0  0  0  0  0
  -52.9334    2.7228  -17.8975 H   0  0  0  0  0  0  0  0  0  0  0  0
  -48.6740   -1.2995  -19.0445 C   0  0  0  0  0  0  0  0  0  0  0  0
  -49.2705   -2.6952  -18.9198 C   0  0  0  0  0  0  0  0  0  0  0  0
  -50.5131   -2.6359  -18.2828 O   0  0  0  0  0  0  0  0  0  0  0  0
  -50.4019   -2.2724  -17.3904 H   0  0  0  0  0  0  0  0  0  0  0  0
  -48.3161   -3.6126  -18.1572 C   0  0  0  0  0  0  0  0  0  0  0  0
  -48.3847   -3.3472  -16.7858 O   0  0  0  0  0  0  0  0  0  0  0  0
  -49.2841   -3.5219  -16.4673 H   0  0  0  0  0  0  0  0  0  0  0  0
  -48.6311   -5.0824  -18.4264 C   0  0  0  0  0  0  0  0  0  0  0  0
  -47.7688   -5.8956  -17.6877 O   0  0  0  0  0  0  0  0  0  0  0  0
  -46.8526   -5.7213  -17.9541 H   0  0  0  0  0  0  0  0  0  0  0  0
  -48.4689   -5.3962  -19.9056 C   0  0  0  0  0  0  0  0  0  0  0  0
  -49.4393   -6.3151  -20.3045 O   0  0  0  0  0  0  0  0  0  0  0  0
  -49.3393   -7.1334  -19.7933 H   0  0  0  0  0  0  0  0  0  0  0  0
  1  2  1  0  0  0
  2  3  2  0  0  0
  3  4  1  0  0  0
  4  5  2  0  0  0
  5  6  1  0  0  0
  5  9  1  0  0  0
  6  7  2  0  0  0
  7  8  1  0  0  0
  7  2  1  0  0  0
  9 10  1  0  0  0
  9 20  1  0  0  0
 10 11  2  0  0  0
 10 17  1  0  0  0
 11 12  1  0  0  0
 12 13  2  0  0  0
 12 14  1  0  0  0
 14 15  1  0  0  0
 15 16  2  0  0  0
 15 17  1  0  0  0
 17 18  2  0  0  0
 18  4  1  0  0  0
 21 20  1  0  0  0
 21 24  1  0  0  0
 21 22  1  0  0  0
 24 27  1  0  0  0
 24 25  1  0  0  0
 27 30  1  0  0  0
 27 28  1  0  0  0
 30 31  1  0  0  0
 14 19  1  0  0  0
 31 32  1  0  0  0
 28 29  1  0  0  0
 25 26  1  0  0  0
 22 23  1  0  0  0
M  END
>  <minimizedAffinity>
-8.01173

>  <minimizedRMSD>
0.75685

$$$$
ZINC000031810529


 31 35  0  0  0  0  0  0  0  0999 V2000
  -47.3517   -1.1802  -24.1058 C   0  0  0  0  0  0  0  0  0  0  0  0
  -48.3436   -1.0285  -23.0054 C   0  0  0  0  0  0  0  0  0  0  0  0
  -49.3206   -0.1045  -23.0107 N   0  0  0  0  0  0  0  0  0  0  0  0
  -50.0177   -0.2532  -21.8960 N   0  0  0  0  0  0  0  0  0  0  0  0
  -49.5221   -1.2887  -21.1804 C   0  0  0  0  0  0  0  0  0  0  0  0
  -48.4199   -1.8045  -21.8611 C   0  0  0  0  0  0  0  0  0  0  0  0
  -47.5193   -2.9713  -21.5645 C   0  0  0  0  0  0  0  0  0  0  0  0
  -47.2410   -3.2920  -19.7945 S   0  0  0  0  0  0  0  0  0  0  0  0
  -48.9076   -3.9546  -19.5627 C   0  0  0  0  0  0  0  0  0  0  0  0
  -49.8282   -2.8734  -19.1347 C   0  0  0  0  0  0  0  0  0  0  0  0
  -50.4013   -2.9830  -18.0204 O   0  0  0  0  0  0  0  0  0  0  0  0
  -50.1199   -1.7355  -19.9514 N   0  0  0  0  0  0  0  0  0  0  0  0
  -50.8494   -1.1650  -19.6172 H   0  0  0  0  0  0  0  0  0  0  0  0
  -51.1632    0.5545  -21.5884 C   0  0  0  0  0  0  0  0  0  0  0  0
  -52.0405    0.9032  -22.5773 N   0  0  0  0  0  0  0  0  0  0  0  0
  -53.1288    1.6976  -22.3230 C   0  0  0  0  0  0  0  0  0  0  0  0
  -53.3574    2.1784  -21.0644 N   0  0  0  0  0  0  0  0  0  0  0  0
  -52.4818    1.8461  -20.0863 C   0  0  0  0  0  0  0  0  0  0  0  0
  -52.5079    2.2648  -18.8154 N   0  0  0  0  0  0  0  0  0  0  0  0
  -51.3858    1.6962  -18.2960 C   0  0  0  0  0  0  0  0  0  0  0  0
  -50.6769    0.9564  -19.1923 N   0  0  0  0  0  0  0  0  0  0  0  0
  -51.4053    1.0640  -20.3122 C   0  0  0  0  0  0  0  0  0  0  0  0
  -53.1713    2.8392  -18.3690 H   0  0  0  0  0  0  0  0  0  0  0  0
  -47.8104   -4.2090  -22.3677 C   0  0  0  0  0  0  0  0  0  0  0  0
  -46.8530   -5.2287  -22.4148 C   0  0  0  0  0  0  0  0  0  0  0  0
  -47.1007   -6.3950  -23.1445 C   0  0  0  0  0  0  0  0  0  0  0  0
  -48.3091   -6.5492  -23.8299 C   0  0  0  0  0  0  0  0  0  0  0  0
  -48.5427   -7.6826  -24.5354 F   0  0  0  0  0  0  0  0  0  0  0  0
  -49.2726   -5.5354  -23.7841 C   0  0  0  0  0  0  0  0  0  0  0  0
  -50.4478   -5.6784  -24.4440 F   0  0  0  0  0  0  0  0  0  0  0  0
  -49.0245   -4.3699  -23.0542 C   0  0  0  0  0  0  0  0  0  0  0  0
  1  2  1  0  0  0
  2  3  2  0  0  0
  3  4  1  0  0  0
  4 14  1  0  0  0
 14 15  2  0  0  0
 15 16  1  0  0  0
 16 17  2  0  0  0
 17 18  1  0  0  0
 18 19  1  0  0  0
 19 20  1  0  0  0
 20 21  2  0  0  0
 21 22  1  0  0  0
  4  5  1  0  0  0
  5  6  2  0  0  0
  6  7  1  0  0  0
  7 24  1  0  0  0
 24 25  2  0  0  0
 25 26  1  0  0  0
 26 27  2  0  0  0
 27 28  1  0  0  0
 27 29  1  0  0  0
 29 30  1  0  0  0
 29 31  2  0  0  0
  7  8  1  0  0  0
  8  9  1  0  0  0
  9 10  1  0  0  0
 10 11  2  0  0  0
 10 12  1  0  0  0
  6  2  1  0  0  0
 31 24  1  0  0  0
 22 14  1  0  0  0
 12  5  1  0  0  0
 22 18  2  0  0  0
 19 23  1  0  0  0
 12 13  1  0  0  0
M  END
>  <minimizedAffinity>
-8.00898

>  <minimizedRMSD>
0.58984

$$$$
ZINC000230157758 PubChem-100900615


 32 34  0  0  0  0  0  0  0  0999 V2000
  -49.2974   -0.7641  -25.6774 C   0  0  0  0  0  0  0  0  0  0  0  0
  -49.2866   -0.6085  -24.1942 C   0  0  0  0  0  0  0  0  0  0  0  0
  -50.2744    0.1809  -23.5954 C   0  0  0  0  0  0  0  0  0  0  0  0
  -50.2939    0.3479  -22.2095 C   0  0  0  0  0  0  0  0  0  0  0  0
  -51.2729    1.1322  -21.6027 C   0  0  0  0  0  0  0  0  0  0  0  0
  -51.2754    1.2867  -20.2113 C   0  0  0  0  0  0  0  0  0  0  0  0
  -50.2850    0.6440  -19.4384 C   0  0  0  0  0  0  0  0  0  0  0  0
  -49.3371   -0.1161  -20.0599 N   0  0  0  0  0  0  0  0  0  0  0  0
  -49.3173   -0.2788  -21.4091 C   0  0  0  0  0  0  0  0  0  0  0  0
  -48.3312   -1.0667  -22.0068 C   0  0  0  0  0  0  0  0  0  0  0  0
  -48.3097   -1.2357  -23.3956 C   0  0  0  0  0  0  0  0  0  0  0  0
  -47.2407   -2.0847  -23.9959 C   0  0  0  0  0  0  0  0  0  0  0  0
  -50.2817    0.7884  -18.0776 N   0  0  0  0  0  0  0  0  0  0  0  0
  -51.2337    1.5602  -17.4667 C   0  0  0  0  0  0  0  0  0  0  0  0
  -51.2359    1.7046  -16.2140 O   0  0  0  0  0  0  0  0  0  0  0  0
  -52.1896    2.1822  -18.2053 N   0  0  0  0  0  0  0  0  0  0  0  0
  -52.2341    2.0638  -19.5556 C   0  0  0  0  0  0  0  0  0  0  0  0
  -53.1389    2.6572  -20.2019 O   0  0  0  0  0  0  0  0  0  0  0  0
  -52.8667    2.7323  -17.7490 H   0  0  0  0  0  0  0  0  0  0  0  0
  -49.2640    0.1120  -17.2713 C   0  0  0  0  0  0  0  0  0  0  0  0
  -49.8411   -1.1372  -16.6155 C   0  0  0  0  0  0  0  0  0  0  0  0
  -50.0603   -2.1107  -17.5928 O   0  0  0  0  0  0  0  0  0  0  0  0
  -49.2187   -2.3361  -18.0191 H   0  0  0  0  0  0  0  0  0  0  0  0
  -48.8875   -1.6754  -15.5422 C   0  0  0  0  0  0  0  0  0  0  0  0
  -49.0021   -3.0640  -15.4431 O   0  0  0  0  0  0  0  0  0  0  0  0
  -49.8992   -3.2947  -15.1550 H   0  0  0  0  0  0  0  0  0  0  0  0
  -49.1024   -1.0437  -14.1586 C   0  0  0  0  0  0  0  0  0  0  0  0
  -48.4480    0.1855  -14.0768 O   0  0  0  0  0  0  0  0  0  0  0  0
  -48.8318    0.7997  -14.7221 H   0  0  0  0  0  0  0  0  0  0  0  0
  -50.5730   -0.8702  -13.7965 C   0  0  0  0  0  0  0  0  0  0  0  0
  -51.1189   -2.0913  -13.4008 O   0  0  0  0  0  0  0  0  0  0  0  0
  -51.0488   -2.7281  -14.1292 H   0  0  0  0  0  0  0  0  0  0  0  0
  1  2  1  0  0  0
  2  3  2  0  0  0
  3  4  1  0  0  0
  4  5  2  0  0  0
  5  6  1  0  0  0
  6  7  2  0  0  0
  7  8  1  0  0  0
  8  9  2  0  0  0
  9 10  1  0  0  0
 10 11  2  0  0  0
 11 12  1  0  0  0
  7 13  1  0  0  0
 13 14  1  0  0  0
 14 15  2  0  0  0
 14 16  1  0  0  0
 16 17  1  0  0  0
 17 18  2  0  0  0
 13 20  1  0  0  0
 21 20  1  0  0  0
 21 24  1  0  0  0
 24 27  1  0  0  0
 27 30  1  0  0  0
 30 31  1  0  0  0
 27 28  1  0  0  0
 24 25  1  0  0  0
 21 22  1  0  0  0
 11  2  1  0  0  0
  9  4  1  0  0  0
 17  6  1  0  0  0
 16 19  1  0  0  0
 31 32  1  0  0  0
 28 29  1  0  0  0
 25 26  1  0  0  0
 22 23  1  0  0  0
M  END
>  <minimizedAffinity>
-8.00552

>  <minimizedRMSD>
0.49554

$$$$
ZINC000031810539


 30 34  0  0  0  0  0  0  0  0999 V2000
  -47.4624   -1.2942  -24.3290 C   0  0  0  0  0  0  0  0  0  0  0  0
  -48.4383   -1.1210  -23.2174 C   0  0  0  0  0  0  0  0  0  0  0  0
  -49.4052   -0.1866  -23.2193 N   0  0  0  0  0  0  0  0  0  0  0  0
  -50.0888   -0.3164  -22.0938 N   0  0  0  0  0  0  0  0  0  0  0  0
  -49.5947   -1.3499  -21.3744 C   0  0  0  0  0  0  0  0  0  0  0  0
  -48.5075   -1.8844  -22.0643 C   0  0  0  0  0  0  0  0  0  0  0  0
  -47.6144   -3.0568  -21.7669 C   0  0  0  0  0  0  0  0  0  0  0  0
  -47.3163   -3.3622  -19.9975 S   0  0  0  0  0  0  0  0  0  0  0  0
  -48.9863   -4.0051  -19.7377 C   0  0  0  0  0  0  0  0  0  0  0  0
  -49.8900   -2.9103  -19.3085 C   0  0  0  0  0  0  0  0  0  0  0  0
  -50.4494   -3.0027  -18.1857 O   0  0  0  0  0  0  0  0  0  0  0  0
  -50.1805   -1.7775  -20.1328 N   0  0  0  0  0  0  0  0  0  0  0  0
  -50.8991   -1.1957  -19.7946 H   0  0  0  0  0  0  0  0  0  0  0  0
  -51.2211    0.5071  -21.7792 C   0  0  0  0  0  0  0  0  0  0  0  0
  -52.1033    0.8623  -22.7614 N   0  0  0  0  0  0  0  0  0  0  0  0
  -53.1792    1.6715  -22.5006 C   0  0  0  0  0  0  0  0  0  0  0  0
  -53.3898    2.1607  -21.2419 N   0  0  0  0  0  0  0  0  0  0  0  0
  -52.5092    1.8217  -20.2706 C   0  0  0  0  0  0  0  0  0  0  0  0
  -52.5181    2.2463  -19.0016 N   0  0  0  0  0  0  0  0  0  0  0  0
  -51.3984    1.6659  -18.4901 C   0  0  0  0  0  0  0  0  0  0  0  0
  -50.7074    0.9132  -19.3896 N   0  0  0  0  0  0  0  0  0  0  0  0
  -51.4448    1.0252  -20.5031 C   0  0  0  0  0  0  0  0  0  0  0  0
  -53.1701    2.8309  -18.5516 H   0  0  0  0  0  0  0  0  0  0  0  0
  -47.9260   -4.3000  -22.5539 C   0  0  0  0  0  0  0  0  0  0  0  0
  -49.2138   -4.5483  -23.0558 C   0  0  0  0  0  0  0  0  0  0  0  0
  -49.4761   -5.7178  -23.7744 C   0  0  0  0  0  0  0  0  0  0  0  0
  -48.4551   -6.6467  -23.9933 C   0  0  0  0  0  0  0  0  0  0  0  0
  -47.1723   -6.4064  -23.4930 C   0  0  0  0  0  0  0  0  0  0  0  0
  -46.1835   -7.3075  -23.7040 F   0  0  0  0  0  0  0  0  0  0  0  0
  -46.9095   -5.2366  -22.7740 C   0  0  0  0  0  0  0  0  0  0  0  0
  1  2  1  0  0  0
  2  3  2  0  0  0
  3  4  1  0  0  0
  4 14  1  0  0  0
 14 15  2  0  0  0
 15 16  1  0  0  0
 16 17  2  0  0  0
 17 18  1  0  0  0
 18 19  1  0  0  0
 19 20  1  0  0  0
 20 21  2  0  0  0
 21 22  1  0  0  0
  4  5  1  0  0  0
  5  6  2  0  0  0
  6  7  1  0  0  0
  7 24  1  0  0  0
 24 25  2  0  0  0
 25 26  1  0  0  0
 26 27  2  0  0  0
 27 28  1  0  0  0
 28 29  1  0  0  0
 28 30  2  0  0  0
  7  8  1  0  0  0
  8  9  1  0  0  0
  9 10  1  0  0  0
 10 11  2  0  0  0
 10 12  1  0  0  0
  6  2  1  0  0  0
 30 24  1  0  0  0
 22 14  1  0  0  0
 12  5  1  0  0  0
 22 18  2  0  0  0
 19 23  1  0  0  0
 12 13  1  0  0  0
M  END
>  <minimizedAffinity>
-8.00516

>  <minimizedRMSD>
0.51799

$$$$
ZINC000031807936


 31 35  0  0  0  0  0  0  0  0999 V2000
  -47.5373   -2.9854  -21.7883 C   0  0  0  0  0  0  0  0  0  0  0  0
  -47.2865   -3.3256  -20.0173 S   0  0  0  0  0  0  0  0  0  0  0  0
  -48.9523   -3.9960  -19.8110 C   0  0  0  0  0  0  0  0  0  0  0  0
  -49.8741   -2.9210  -19.3730 C   0  0  0  0  0  0  0  0  0  0  0  0
  -50.4522   -3.0433  -18.2626 O   0  0  0  0  0  0  0  0  0  0  0  0
  -50.1571   -1.7717  -20.1759 N   0  0  0  0  0  0  0  0  0  0  0  0
  -49.5665   -1.3278  -21.4094 C   0  0  0  0  0  0  0  0  0  0  0  0
  -48.4710   -1.8478  -22.0991 C   0  0  0  0  0  0  0  0  0  0  0  0
  -48.4021   -1.0717  -23.2440 C   0  0  0  0  0  0  0  0  0  0  0  0
  -47.4098   -1.2156  -24.3453 C   0  0  0  0  0  0  0  0  0  0  0  0
  -49.3804   -0.1493  -23.2450 N   0  0  0  0  0  0  0  0  0  0  0  0
  -50.0694   -0.2961  -22.1251 N   0  0  0  0  0  0  0  0  0  0  0  0
  -50.8715   -1.1907  -19.8278 H   0  0  0  0  0  0  0  0  0  0  0  0
  -51.2127    0.5119  -21.8105 C   0  0  0  0  0  0  0  0  0  0  0  0
  -52.0979    0.8585  -22.7932 N   0  0  0  0  0  0  0  0  0  0  0  0
  -53.1837    1.6537  -22.5318 C   0  0  0  0  0  0  0  0  0  0  0  0
  -53.4019    2.1376  -21.2724 N   0  0  0  0  0  0  0  0  0  0  0  0
  -52.5182    1.8074  -20.3008 C   0  0  0  0  0  0  0  0  0  0  0  0
  -52.5332    2.2297  -19.0310 N   0  0  0  0  0  0  0  0  0  0  0  0
  -51.4069    1.6622  -18.5196 C   0  0  0  0  0  0  0  0  0  0  0  0
  -50.7061    0.9196  -19.4199 N   0  0  0  0  0  0  0  0  0  0  0  0
  -51.4442    1.0244  -20.5337 C   0  0  0  0  0  0  0  0  0  0  0  0
  -53.1926    2.8056  -18.5806 H   0  0  0  0  0  0  0  0  0  0  0  0
  -48.1464   -6.5492  -24.1389 C   0  0  0  0  0  0  0  0  0  0  0  0
  -49.2123   -5.6716  -23.9178 C   0  0  0  0  0  0  0  0  0  0  0  0
  -49.0262   -4.5124  -23.1603 C   0  0  0  0  0  0  0  0  0  0  0  0
  -47.7662   -4.2168  -22.6182 C   0  0  0  0  0  0  0  0  0  0  0  0
  -46.7006   -5.0965  -22.8338 C   0  0  0  0  0  0  0  0  0  0  0  0
  -46.8871   -6.2561  -23.5909 C   0  0  0  0  0  0  0  0  0  0  0  0
  -47.3704   -8.6992  -25.0843 C   0  0  0  0  0  0  0  0  0  0  0  0
  -48.3641   -7.6998  -24.9015 O   0  0  0  0  0  0  0  0  0  0  0  0
 30 31  1  0  0  0
 31 24  1  0  0  0
 24 25  2  0  0  0
 25 26  1  0  0  0
 26 27  2  0  0  0
  1 27  1  0  0  0
  1  2  1  0  0  0
  2  3  1  0  0  0
  3  4  1  0  0  0
  4  5  2  0  0  0
  4  6  1  0  0  0
  6  7  1  0  0  0
  7  8  2  0  0  0
  8  9  1  0  0  0
  9 10  1  0  0  0
  9 11  2  0  0  0
 11 12  1  0  0  0
 12 14  1  0  0  0
 14 15  2  0  0  0
 15 16  1  0  0  0
 16 17  2  0  0  0
 17 18  1  0  0  0
 18 19  1  0  0  0
 19 20  1  0  0  0
 20 21  2  0  0  0
 21 22  1  0  0  0
 27 28  1  0  0  0
 28 29  2  0  0  0
 29 24  1  0  0  0
  8  1  1  0  0  0
 22 14  1  0  0  0
 12  7  1  0  0  0
 22 18  2  0  0  0
  6 13  1  0  0  0
 19 23  1  0  0  0
M  END
>  <minimizedAffinity>
-8.00264

>  <minimizedRMSD>
0.58162

$$$$
ZINC000004702219 ZINC04702219 PubChem-1342041


 32 35  0  0  0  0  0  0  0  0999 V2000
  -52.4061    1.1683  -22.6643 C   0  0  0  0  0  0  0  0  0  0  0  0
  -51.1831    0.3187  -22.7670 C   0  0  0  0  0  0  0  0  0  0  0  0
  -50.2236    0.2835  -21.8106 C   0  0  0  0  0  0  0  0  0  0  0  0
  -49.0795   -0.7078  -21.9472 C   0  0  0  0  0  0  0  0  0  0  0  0
  -48.8236   -1.1855  -23.3598 C   0  0  0  0  0  0  0  0  0  0  0  0
  -49.8052   -1.1291  -24.2741 C   0  0  0  0  0  0  0  0  0  0  0  0
  -51.0193   -0.4402  -23.9697 N   0  0  0  0  0  0  0  0  0  0  0  0
  -49.6060   -1.6547  -25.6693 C   0  0  0  0  0  0  0  0  0  0  0  0
  -48.6466   -2.8469  -25.7167 C   0  0  0  0  0  0  0  0  0  0  0  0
  -47.3278   -2.5194  -25.0106 C   0  0  0  0  0  0  0  0  0  0  0  0
  -47.5284   -1.8186  -23.6966 C   0  0  0  0  0  0  0  0  0  0  0  0
  -46.5665   -1.7592  -22.8860 O   0  0  0  0  0  0  0  0  0  0  0  0
  -48.3500   -3.1709  -27.1653 C   0  0  0  0  0  0  0  0  0  0  0  0
  -49.2903   -4.0668  -25.0765 C   0  0  0  0  0  0  0  0  0  0  0  0
  -51.7674   -0.4890  -24.6078 H   0  0  0  0  0  0  0  0  0  0  0  0
  -49.2641   -1.8752  -21.0192 C   0  0  0  0  0  0  0  0  0  0  0  0
  -50.2673   -2.8293  -21.2350 C   0  0  0  0  0  0  0  0  0  0  0  0
  -50.4072   -3.9043  -20.3565 C   0  0  0  0  0  0  0  0  0  0  0  0
  -49.5378   -4.0132  -19.2693 C   0  0  0  0  0  0  0  0  0  0  0  0
  -48.5675   -3.0798  -19.0748 N   0  0  0  0  0  0  0  0  0  0  0  0
  -48.4143   -2.0248  -19.9195 C   0  0  0  0  0  0  0  0  0  0  0  0
  -50.2516    1.1219  -20.5785 C   0  0  0  0  0  0  0  0  0  0  0  0
  -49.9387    2.3424  -20.6149 O   0  0  0  0  0  0  0  0  0  0  0  0
  -50.6364    0.5173  -19.3341 N   0  0  0  0  0  0  0  0  0  0  0  0
  -50.8336   -0.4469  -19.3577 H   0  0  0  0  0  0  0  0  0  0  0  0
  -50.7648    1.1641  -18.0611 C   0  0  0  0  0  0  0  0  0  0  0  0
  -49.9633    0.7262  -17.0010 C   0  0  0  0  0  0  0  0  0  0  0  0
  -50.0620    1.3285  -15.7430 C   0  0  0  0  0  0  0  0  0  0  0  0
  -50.9661    2.3742  -15.5379 C   0  0  0  0  0  0  0  0  0  0  0  0
  -51.7711    2.8170  -16.5907 C   0  0  0  0  0  0  0  0  0  0  0  0
  -51.6714    2.2139  -17.8477 C   0  0  0  0  0  0  0  0  0  0  0  0
  -52.6482    3.8301  -16.3932 F   0  0  0  0  0  0  0  0  0  0  0  0
  1  2  1  0  0  0
  2  3  2  0  0  0
  3  4  1  0  0  0
  3 22  1  0  0  0
  4  5  1  0  0  0
  4 16  1  0  0  0
  5  6  2  0  0  0
  6  7  1  0  0  0
  6  8  1  0  0  0
  7  2  1  0  0  0
  8  9  1  0  0  0
  9 10  1  0  0  0
  9 13  1  0  0  0
  9 14  1  0  0  0
 10 11  1  0  0  0
 11 12  2  0  0  0
 11  5  1  0  0  0
 16 17  2  0  0  0
 17 18  1  0  0  0
 18 19  2  0  0  0
 19 20  1  0  0  0
 20 21  2  0  0  0
 21 16  1  0  0  0
 22 23  2  0  0  0
 22 24  1  0  0  0
 24 26  1  0  0  0
 26 27  2  0  0  0
 27 28  1  0  0  0
 28 29  2  0  0  0
 29 30  1  0  0  0
 30 31  2  0  0  0
 30 32  1  0  0  0
 31 26  1  0  0  0
  7 15  1  0  0  0
 24 25  1  0  0  0
M  END
>  <minimizedAffinity>
-8.00008

>  <minimizedRMSD>
2.25456

$$$$
