MODEL 1
REMARK VINA RESULT:      -5.6      0.000      0.000
REMARK  Name = ZINC000011565587 ZINC11565587 PubChem-12304941
REMARK  9 active torsions:
REMARK  status: ('A' for Active; 'I' for Inactive)
REMARK    1  A    between atoms: N_9  and  C_20
REMARK    2  A    between atoms: C_20  and  C_21
REMARK    3  A    between atoms: C_21  and  O_22
REMARK    4  A    between atoms: C_21  and  C_24
REMARK    5  A    between atoms: C_24  and  O_25
REMARK    6  A    between atoms: C_24  and  C_27
REMARK    7  A    between atoms: C_27  and  O_28
REMARK    8  A    between atoms: C_27  and  C_30
REMARK    9  A    between atoms: C_30  and  O_31
REMARK                            x       y       z     vdW  Elec       q    Type
REMARK                         _______ _______ _______ _____ _____    ______ ____
ROOT
ATOM      1  C   UNL     1     -47.086  -3.674 -23.619  0.00  0.00    +0.000 C 
ATOM      2  C   UNL     1     -47.101  -4.063 -25.060  0.00  0.00    +0.000 A 
ATOM      3  C   UNL     1     -46.819  -5.388 -25.399  0.00  0.00    +0.000 A 
ATOM      4  C   UNL     1     -46.822  -5.796 -26.734  0.00  0.00    +0.000 A 
ATOM      5  C   UNL     1     -47.114  -4.861 -27.764  0.00  0.00    +0.000 A 
ATOM      6  C   UNL     1     -47.394  -3.531 -27.408  0.00  0.00    +0.000 A 
ATOM      7  C   UNL     1     -47.389  -3.128 -26.070  0.00  0.00    +0.000 A 
ATOM      8  C   UNL     1     -47.695  -1.704 -25.750  0.00  0.00    +0.000 C 
ATOM      9  N   UNL     1     -47.119  -5.259 -29.080  0.00  0.00    +0.000 N 
ATOM     10  C   UNL     1     -46.836  -6.557 -29.399  0.00  0.00    +0.000 A 
ATOM     11  N   UNL     1     -46.822  -6.994 -30.685  0.00  0.00    +0.000 NA
ATOM     12  C   UNL     1     -46.538  -8.291 -30.980  0.00  0.00    +0.000 A 
ATOM     13  O   UNL     1     -46.532  -8.670 -32.180  0.00  0.00    +0.000 OA
ATOM     14  N   UNL     1     -46.261  -9.185 -29.990  0.00  0.00    +0.000 N 
ATOM     15  C   UNL     1     -46.253  -8.830 -28.677  0.00  0.00    +0.000 A 
ATOM     16  O   UNL     1     -45.990  -9.691 -27.798  0.00  0.00    +0.000 OA
ATOM     17  C   UNL     1     -46.536  -7.513 -28.321  0.00  0.00    +0.000 A 
ATOM     18  N   UNL     1     -46.543  -7.090 -27.035  0.00  0.00    +0.000 NA
ATOM     19  H   UNL     1     -46.061 -10.118 -30.232  0.00  0.00    +0.000 HD
ENDROOT
BRANCH   9  20
ATOM     20  C   UNL     1     -47.433  -4.309 -30.152  0.00  0.00    +0.000 C 
BRANCH  20  21
ATOM     21  C   UNL     1     -46.156  -3.769 -30.787  0.00  0.00    +0.000 C 
BRANCH  21  22
ATOM     22  O   UNL     1     -45.911  -2.461 -30.362  0.00  0.00    +0.000 OA
ATOM     23  H   UNL     1     -46.529  -2.232 -29.651  0.00  0.00    +0.000 HD
ENDBRANCH  21  22
BRANCH  21  24
ATOM     24  C   UNL     1     -46.232  -3.847 -32.311  0.00  0.00    +0.000 C 
BRANCH  24  25
ATOM     25  O   UNL     1     -47.061  -4.903 -32.699  0.00  0.00    +0.000 OA
ATOM     26  H   UNL     1     -47.204  -5.496 -31.945  0.00  0.00    +0.000 HD
ENDBRANCH  24  25
BRANCH  24  27
ATOM     27  C   UNL     1     -44.857  -3.956 -32.980  0.00  0.00    +0.000 C 
BRANCH  27  28
ATOM     28  O   UNL     1     -43.835  -3.764 -32.049  0.00  0.00    +0.000 OA
ATOM     29  H   UNL     1     -43.271  -3.028 -32.334  0.00  0.00    +0.000 HD
ENDBRANCH  27  28
BRANCH  27  30
ATOM     30  C   UNL     1     -44.688  -5.312 -33.643  0.00  0.00    +0.000 C 
BRANCH  30  31
ATOM     31  O   UNL     1     -44.535  -6.302 -32.673  0.00  0.00    +0.000 OA
ATOM     32  H   UNL     1     -43.751  -6.110 -32.134  0.00  0.00    +0.000 HD
ENDBRANCH  30  31
ENDBRANCH  27  30
ENDBRANCH  24  27
ENDBRANCH  21  24
ENDBRANCH  20  21
ENDBRANCH   9  20
TORSDOF 9
ENDMDL
MODEL 2
REMARK VINA RESULT:      -5.5      2.306      5.686
REMARK  Name = ZINC000011565587 ZINC11565587 PubChem-12304941
REMARK  9 active torsions:
REMARK  status: ('A' for Active; 'I' for Inactive)
REMARK    1  A    between atoms: N_9  and  C_20
REMARK    2  A    between atoms: C_20  and  C_21
REMARK    3  A    between atoms: C_21  and  O_22
REMARK    4  A    between atoms: C_21  and  C_24
REMARK    5  A    between atoms: C_24  and  O_25
REMARK    6  A    between atoms: C_24  and  C_27
REMARK    7  A    between atoms: C_27  and  O_28
REMARK    8  A    between atoms: C_27  and  C_30
REMARK    9  A    between atoms: C_30  and  O_31
REMARK                            x       y       z     vdW  Elec       q    Type
REMARK                         _______ _______ _______ _____ _____    ______ ____
ROOT
ATOM      1  C   UNL     1     -45.728  -9.413 -34.689  0.00  0.00    +0.000 C 
ATOM      2  C   UNL     1     -45.966  -8.202 -33.850  0.00  0.00    +0.000 A 
ATOM      3  C   UNL     1     -46.103  -8.361 -32.469  0.00  0.00    +0.000 A 
ATOM      4  C   UNL     1     -46.327  -7.256 -31.645  0.00  0.00    +0.000 A 
ATOM      5  C   UNL     1     -46.415  -5.954 -32.208  0.00  0.00    +0.000 A 
ATOM      6  C   UNL     1     -46.276  -5.810 -33.599  0.00  0.00    +0.000 A 
ATOM      7  C   UNL     1     -46.054  -6.920 -34.419  0.00  0.00    +0.000 A 
ATOM      8  C   UNL     1     -45.913  -6.707 -35.888  0.00  0.00    +0.000 C 
ATOM      9  N   UNL     1     -46.634  -4.863 -31.400  0.00  0.00    +0.000 N 
ATOM     10  C   UNL     1     -46.772  -5.033 -30.052  0.00  0.00    +0.000 A 
ATOM     11  N   UNL     1     -46.997  -3.987 -29.215  0.00  0.00    +0.000 NA
ATOM     12  C   UNL     1     -47.131  -4.179 -27.875  0.00  0.00    +0.000 A 
ATOM     13  O   UNL     1     -47.338  -3.191 -27.123  0.00  0.00    +0.000 OA
ATOM     14  N   UNL     1     -47.043  -5.428 -27.339  0.00  0.00    +0.000 N 
ATOM     15  C   UNL     1     -46.822  -6.529 -28.106  0.00  0.00    +0.000 A 
ATOM     16  O   UNL     1     -46.749  -7.663 -27.564  0.00  0.00    +0.000 OA
ATOM     17  C   UNL     1     -46.678  -6.388 -29.484  0.00  0.00    +0.000 A 
ATOM     18  N   UNL     1     -46.458  -7.440 -30.307  0.00  0.00    +0.000 NA
ATOM     19  H   UNL     1     -47.143  -5.537 -26.366  0.00  0.00    +0.000 HD
ENDROOT
BRANCH   9  20
ATOM     20  C   UNL     1     -46.713  -3.513 -31.966  0.00  0.00    +0.000 C 
BRANCH  20  21
ATOM     21  C   UNL     1     -45.463  -2.709 -31.620  0.00  0.00    +0.000 C 
BRANCH  21  22
ATOM     22  O   UNL     1     -45.724  -1.823 -30.571  0.00  0.00    +0.000 OA
ATOM     23  H   UNL     1     -45.869  -0.934 -30.928  0.00  0.00    +0.000 HD
ENDBRANCH  21  22
BRANCH  21  24
ATOM     24  C   UNL     1     -44.938  -1.967 -32.848  0.00  0.00    +0.000 C 
BRANCH  24  25
ATOM     25  O   UNL     1     -45.606  -2.400 -33.996  0.00  0.00    +0.000 OA
ATOM     26  H   UNL     1     -45.066  -2.209 -34.777  0.00  0.00    +0.000 HD
ENDBRANCH  24  25
BRANCH  24  27
ATOM     27  C   UNL     1     -43.419  -2.084 -33.021  0.00  0.00    +0.000 C 
BRANCH  27  28
ATOM     28  O   UNL     1     -43.089  -2.329 -34.355  0.00  0.00    +0.000 OA
ATOM     29  H   UNL     1     -43.124  -3.284 -34.527  0.00  0.00    +0.000 HD
ENDBRANCH  27  28
BRANCH  27  30
ATOM     30  C   UNL     1     -42.726  -0.816 -32.554  0.00  0.00    +0.000 C 
BRANCH  30  31
ATOM     31  O   UNL     1     -43.601  -0.049 -31.784  0.00  0.00    +0.000 OA
ATOM     32  H   UNL     1     -43.604  -0.379 -30.871  0.00  0.00    +0.000 HD
ENDBRANCH  30  31
ENDBRANCH  27  30
ENDBRANCH  24  27
ENDBRANCH  21  24
ENDBRANCH  20  21
ENDBRANCH   9  20
TORSDOF 9
ENDMDL
MODEL 3
REMARK VINA RESULT:      -5.4      9.002     12.020
REMARK  Name = ZINC000011565587 ZINC11565587 PubChem-12304941
REMARK  9 active torsions:
REMARK  status: ('A' for Active; 'I' for Inactive)
REMARK    1  A    between atoms: N_9  and  C_20
REMARK    2  A    between atoms: C_20  and  C_21
REMARK    3  A    between atoms: C_21  and  O_22
REMARK    4  A    between atoms: C_21  and  C_24
REMARK    5  A    between atoms: C_24  and  O_25
REMARK    6  A    between atoms: C_24  and  C_27
REMARK    7  A    between atoms: C_27  and  O_28
REMARK    8  A    between atoms: C_27  and  C_30
REMARK    9  A    between atoms: C_30  and  O_31
REMARK                            x       y       z     vdW  Elec       q    Type
REMARK                         _______ _______ _______ _____ _____    ______ ____
ROOT
ATOM      1  C   UNL     1     -46.290 -19.144 -19.447  0.00  0.00    +0.000 C 
ATOM      2  C   UNL     1     -45.883 -18.263 -20.580  0.00  0.00    +0.000 A 
ATOM      3  C   UNL     1     -45.528 -18.855 -21.794  0.00  0.00    +0.000 A 
ATOM      4  C   UNL     1     -45.140 -18.069 -22.882  0.00  0.00    +0.000 A 
ATOM      5  C   UNL     1     -45.105 -16.654 -22.761  0.00  0.00    +0.000 A 
ATOM      6  C   UNL     1     -45.464 -16.073 -21.533  0.00  0.00    +0.000 A 
ATOM      7  C   UNL     1     -45.850 -16.864 -20.448  0.00  0.00    +0.000 A 
ATOM      8  C   UNL     1     -46.221 -16.192 -19.169  0.00  0.00    +0.000 C 
ATOM      9  N   UNL     1     -44.725 -15.876 -23.829  0.00  0.00    +0.000 N 
ATOM     10  C   UNL     1     -44.374 -16.468 -25.009  0.00  0.00    +0.000 A 
ATOM     11  N   UNL     1     -43.985 -15.741 -26.090  0.00  0.00    +0.000 NA
ATOM     12  C   UNL     1     -43.640 -16.351 -27.255  0.00  0.00    +0.000 A 
ATOM     13  O   UNL     1     -43.284 -15.654 -28.241  0.00  0.00    +0.000 OA
ATOM     14  N   UNL     1     -43.677 -17.709 -27.368  0.00  0.00    +0.000 N 
ATOM     15  C   UNL     1     -44.053 -18.509 -26.335  0.00  0.00    +0.000 A 
ATOM     16  O   UNL     1     -44.072 -19.759 -26.487  0.00  0.00    +0.000 OA
ATOM     17  C   UNL     1     -44.415 -17.935 -25.119  0.00  0.00    +0.000 A 
ATOM     18  N   UNL     1     -44.798 -18.671 -24.049  0.00  0.00    +0.000 NA
ATOM     19  H   UNL     1     -43.424 -18.123 -28.225  0.00  0.00    +0.000 HD
ENDROOT
BRANCH   9  20
ATOM     20  C   UNL     1     -44.699 -14.414 -23.723  0.00  0.00    +0.000 C 
BRANCH  20  21
ATOM     21  C   UNL     1     -46.002 -13.811 -24.238  0.00  0.00    +0.000 C 
BRANCH  21  22
ATOM     22  O   UNL     1     -46.798 -14.796 -24.830  0.00  0.00    +0.000 OA
ATOM     23  H   UNL     1     -46.516 -14.930 -25.748  0.00  0.00    +0.000 HD
ENDBRANCH  21  22
BRANCH  21  24
ATOM     24  C   UNL     1     -45.725 -12.668 -25.214  0.00  0.00    +0.000 C 
BRANCH  24  25
ATOM     25  O   UNL     1     -46.170 -11.458 -24.677  0.00  0.00    +0.000 OA
ATOM     26  H   UNL     1     -47.111 -11.341 -24.879  0.00  0.00    +0.000 HD
ENDBRANCH  24  25
BRANCH  24  27
ATOM     27  C   UNL     1     -46.322 -12.904 -26.606  0.00  0.00    +0.000 C 
BRANCH  27  28
ATOM     28  O   UNL     1     -47.414 -12.064 -26.826  0.00  0.00    +0.000 OA
ATOM     29  H   UNL     1     -47.155 -11.346 -27.424  0.00  0.00    +0.000 HD
ENDBRANCH  27  28
BRANCH  27  30
ATOM     30  C   UNL     1     -45.278 -12.668 -27.684  0.00  0.00    +0.000 C 
BRANCH  30  31
ATOM     31  O   UNL     1     -44.001 -12.896 -27.171  0.00  0.00    +0.000 OA
ATOM     32  H   UNL     1     -43.418 -12.158 -27.413  0.00  0.00    +0.000 HD
ENDBRANCH  30  31
ENDBRANCH  27  30
ENDBRANCH  24  27
ENDBRANCH  21  24
ENDBRANCH  20  21
ENDBRANCH   9  20
TORSDOF 9
ENDMDL
