MODEL 1
REMARK VINA RESULT:      -6.8      0.000      0.000
REMARK  Name = ZINC000008812094 PubChem-92346081
REMARK  7 active torsions:
REMARK  status: ('A' for Active; 'I' for Inactive)
REMARK    1  A    between atoms: C_1  and  S_27
REMARK    2  A    between atoms: C_11  and  C_13
REMARK    3  A    between atoms: N_15  and  C_17
REMARK    4  A    between atoms: C_17  and  C_18
REMARK    5  A    between atoms: C_18  and  C_19
REMARK    6  A    between atoms: C_19  and  N_20
REMARK    7  A    between atoms: S_27  and  N_36
REMARK                            x       y       z     vdW  Elec       q    Type
REMARK                         _______ _______ _______ _____ _____    ______ ____
ROOT
ATOM      1  C   UNL     1     -45.312  -4.852 -30.684  0.00  0.00    +0.000 A 
ATOM      2  C   UNL     1     -44.567  -5.529 -29.714  0.00  0.00    +0.000 A 
ATOM      3  C   UNL     1     -45.139  -5.867 -28.478  0.00  0.00    +0.000 A 
ATOM      4  C   UNL     1     -46.492  -5.529 -28.235  0.00  0.00    +0.000 A 
ATOM      5  C   UNL     1     -47.234  -4.855 -29.209  0.00  0.00    +0.000 A 
ATOM      6  C   UNL     1     -46.645  -4.517 -30.430  0.00  0.00    +0.000 A 
ATOM      7  N   UNL     1     -47.077  -5.860 -27.054  0.00  0.00    +0.000 N 
ATOM      8  C   UNL     1     -46.393  -6.517 -26.082  0.00  0.00    +0.000 A 
ATOM      9  O   UNL     1     -46.966  -6.809 -25.000  0.00  0.00    +0.000 OA
ATOM     10  C   UNL     1     -45.058  -6.869 -26.279  0.00  0.00    +0.000 A 
ATOM     11  C   UNL     1     -44.411  -6.556 -27.480  0.00  0.00    +0.000 A 
ATOM     12  H   UNL     1     -48.019  -5.618 -26.900  0.00  0.00    +0.000 HD
ENDROOT
BRANCH  11  13
ATOM     13  C   UNL     1     -42.977  -6.908 -27.646  0.00  0.00    +0.000 C 
ATOM     14  O   UNL     1     -42.094  -6.080 -27.296  0.00  0.00    +0.000 OA
ATOM     15  N   UNL     1     -42.551  -8.159 -28.202  0.00  0.00    +0.000 N 
ATOM     16  H   UNL     1     -41.583  -8.338 -28.232  0.00  0.00    +0.000 HD
BRANCH  15  17
ATOM     17  C   UNL     1     -43.440  -9.184 -28.726  0.00  0.00    +0.000 C 
BRANCH  17  18
ATOM     18  C   UNL     1     -43.850 -10.128 -27.610  0.00  0.00    +0.000 C 
BRANCH  18  19
ATOM     19  C   UNL     1     -45.291 -10.571 -27.797  0.00  0.00    +0.000 C 
BRANCH  19  20
ATOM     20  N   UNL     1     -45.832 -10.028 -29.034  0.00  0.00    +0.000 NA
ATOM     21  C   UNL     1     -46.091 -11.160 -29.915  0.00  0.00    +0.000 C 
ATOM     22  C   UNL     1     -45.912 -10.775 -31.387  0.00  0.00    +0.000 C 
ATOM     23  C   UNL     1     -46.411  -9.371 -31.746  0.00  0.00    +0.000 C 
ATOM     24  C   UNL     1     -47.756  -9.036 -31.115  0.00  0.00    +0.000 C 
ATOM     25  C   UNL     1     -47.548  -8.416 -29.736  0.00  0.00    +0.000 C 
ATOM     26  C   UNL     1     -47.131  -9.458 -28.701  0.00  0.00    +0.000 C 
ENDBRANCH  19  20
ENDBRANCH  18  19
ENDBRANCH  17  18
ENDBRANCH  15  17
ENDBRANCH  11  13
BRANCH   1  27
ATOM     27  S   UNL     1     -44.578  -4.434 -32.222  0.00  0.00    +0.000 S 
ATOM     28  O   UNL     1     -43.562  -5.483 -32.578  0.00  0.00    +0.000 OA
ATOM     29  O   UNL     1     -45.644  -4.386 -33.282  0.00  0.00    +0.000 OA
BRANCH  27  36
ATOM     30  C   UNL     1     -42.654  -3.132 -34.314  0.00  0.00    +0.000 C 
ATOM     31  C   UNL     1     -42.514  -2.854 -32.815  0.00  0.00    +0.000 C 
ATOM     32  C   UNL     1     -41.821  -1.509 -32.587  0.00  0.00    +0.000 C 
ATOM     33  C   UNL     1     -42.736  -0.350 -32.990  0.00  0.00    +0.000 C 
ATOM     34  C   UNL     1     -44.090  -0.465 -32.296  0.00  0.00    +0.000 C 
ATOM     35  C   UNL     1     -44.700  -1.835 -32.578  0.00  0.00    +0.000 C 
ATOM     36  N   UNL     1     -43.798  -2.881 -32.088  0.00  0.00    +0.000 NA
ENDBRANCH  27  36
ENDBRANCH   1  27
TORSDOF 7
ENDMDL
MODEL 2
REMARK VINA RESULT:      -6.5      1.679      3.080
REMARK  Name = ZINC000008812094 PubChem-92346081
REMARK  7 active torsions:
REMARK  status: ('A' for Active; 'I' for Inactive)
REMARK    1  A    between atoms: C_1  and  S_27
REMARK    2  A    between atoms: C_11  and  C_13
REMARK    3  A    between atoms: N_15  and  C_17
REMARK    4  A    between atoms: C_17  and  C_18
REMARK    5  A    between atoms: C_18  and  C_19
REMARK    6  A    between atoms: C_19  and  N_20
REMARK    7  A    between atoms: S_27  and  N_36
REMARK                            x       y       z     vdW  Elec       q    Type
REMARK                         _______ _______ _______ _____ _____    ______ ____
ROOT
ATOM      1  C   UNL     1     -44.952  -5.363 -29.639  0.00  0.00    +0.000 A 
ATOM      2  C   UNL     1     -45.479  -5.726 -28.397  0.00  0.00    +0.000 A 
ATOM      3  C   UNL     1     -44.687  -6.394 -27.450  0.00  0.00    +0.000 A 
ATOM      4  C   UNL     1     -43.337  -6.677 -27.766  0.00  0.00    +0.000 A 
ATOM      5  C   UNL     1     -42.813  -6.309 -29.009  0.00  0.00    +0.000 A 
ATOM      6  C   UNL     1     -43.619  -5.654 -29.943  0.00  0.00    +0.000 A 
ATOM      7  N   UNL     1     -42.541  -7.307 -26.862  0.00  0.00    +0.000 N 
ATOM      8  C   UNL     1     -43.009  -7.679 -25.642  0.00  0.00    +0.000 A 
ATOM      9  O   UNL     1     -42.245  -8.260 -24.829  0.00  0.00    +0.000 OA
ATOM     10  C   UNL     1     -44.332  -7.420 -25.290  0.00  0.00    +0.000 A 
ATOM     11  C   UNL     1     -45.191  -6.769 -26.184  0.00  0.00    +0.000 A 
ATOM     12  H   UNL     1     -41.604  -7.496 -27.097  0.00  0.00    +0.000 HD
ENDROOT
BRANCH  11  13
ATOM     13  C   UNL     1     -46.608  -6.542 -25.796  0.00  0.00    +0.000 C 
ATOM     14  O   UNL     1     -46.969  -5.394 -25.422  0.00  0.00    +0.000 OA
ATOM     15  N   UNL     1     -47.590  -7.587 -25.820  0.00  0.00    +0.000 N 
ATOM     16  H   UNL     1     -48.518  -7.344 -25.597  0.00  0.00    +0.000 HD
BRANCH  15  17
ATOM     17  C   UNL     1     -47.318  -8.978 -26.148  0.00  0.00    +0.000 C 
BRANCH  17  18
ATOM     18  C   UNL     1     -47.338  -9.163 -27.654  0.00  0.00    +0.000 C 
BRANCH  18  19
ATOM     19  C   UNL     1     -46.017  -9.743 -28.131  0.00  0.00    +0.000 C 
BRANCH  19  20
ATOM     20  N   UNL     1     -45.760  -9.351 -29.508  0.00  0.00    +0.000 NA
ATOM     21  C   UNL     1     -44.605 -10.119 -29.959  0.00  0.00    +0.000 C 
ATOM     22  C   UNL     1     -43.780  -9.337 -30.984  0.00  0.00    +0.000 C 
ATOM     23  C   UNL     1     -44.606  -8.510 -31.976  0.00  0.00    +0.000 C 
ATOM     24  C   UNL     1     -45.820  -9.259 -32.509  0.00  0.00    +0.000 C 
ATOM     25  C   UNL     1     -47.020  -9.033 -31.593  0.00  0.00    +0.000 C 
ATOM     26  C   UNL     1     -46.897  -9.819 -30.291  0.00  0.00    +0.000 C 
ENDBRANCH  19  20
ENDBRANCH  18  19
ENDBRANCH  17  18
ENDBRANCH  15  17
ENDBRANCH  11  13
BRANCH   1  27
ATOM     27  S   UNL     1     -45.959  -4.532 -30.812  0.00  0.00    +0.000 S 
ATOM     28  O   UNL     1     -46.550  -5.546 -31.752  0.00  0.00    +0.000 OA
ATOM     29  O   UNL     1     -47.065  -3.810 -30.093  0.00  0.00    +0.000 OA
BRANCH  27  36
ATOM     30  C   UNL     1     -46.770  -3.067 -33.452  0.00  0.00    +0.000 C 
ATOM     31  C   UNL     1     -45.313  -3.421 -33.148  0.00  0.00    +0.000 C 
ATOM     32  C   UNL     1     -44.369  -2.484 -33.904  0.00  0.00    +0.000 C 
ATOM     33  C   UNL     1     -44.428  -1.069 -33.326  0.00  0.00    +0.000 C 
ATOM     34  C   UNL     1     -44.186  -1.092 -31.818  0.00  0.00    +0.000 C 
ATOM     35  C   UNL     1     -45.168  -2.052 -31.154  0.00  0.00    +0.000 C 
ATOM     36  N   UNL     1     -44.988  -3.397 -31.708  0.00  0.00    +0.000 NA
ENDBRANCH  27  36
ENDBRANCH   1  27
TORSDOF 7
ENDMDL
MODEL 3
REMARK VINA RESULT:      -6.5     10.233     15.158
REMARK  Name = ZINC000008812094 PubChem-92346081
REMARK  7 active torsions:
REMARK  status: ('A' for Active; 'I' for Inactive)
REMARK    1  A    between atoms: C_1  and  S_27
REMARK    2  A    between atoms: C_11  and  C_13
REMARK    3  A    between atoms: N_15  and  C_17
REMARK    4  A    between atoms: C_17  and  C_18
REMARK    5  A    between atoms: C_18  and  C_19
REMARK    6  A    between atoms: C_19  and  N_20
REMARK    7  A    between atoms: S_27  and  N_36
REMARK                            x       y       z     vdW  Elec       q    Type
REMARK                         _______ _______ _______ _____ _____    ______ ____
ROOT
ATOM      1  C   UNL     1     -41.990 -19.951 -22.565  0.00  0.00    +0.000 A 
ATOM      2  C   UNL     1     -42.949 -19.665 -23.540  0.00  0.00    +0.000 A 
ATOM      3  C   UNL     1     -42.634 -19.761 -24.904  0.00  0.00    +0.000 A 
ATOM      4  C   UNL     1     -41.333 -20.172 -25.279  0.00  0.00    +0.000 A 
ATOM      5  C   UNL     1     -40.378 -20.461 -24.299  0.00  0.00    +0.000 A 
ATOM      6  C   UNL     1     -40.706 -20.350 -22.946  0.00  0.00    +0.000 A 
ATOM      7  N   UNL     1     -41.005 -20.292 -26.592  0.00  0.00    +0.000 N 
ATOM      8  C   UNL     1     -41.904 -20.024 -27.575  0.00  0.00    +0.000 A 
ATOM      9  O   UNL     1     -41.567 -20.145 -28.781  0.00  0.00    +0.000 OA
ATOM     10  C   UNL     1     -43.196 -19.615 -27.252  0.00  0.00    +0.000 A 
ATOM     11  C   UNL     1     -43.585 -19.482 -25.913  0.00  0.00    +0.000 A 
ATOM     12  H   UNL     1     -40.096 -20.579 -26.836  0.00  0.00    +0.000 HD
ENDROOT
BRANCH  11  13
ATOM     13  C   UNL     1     -44.958 -19.007 -25.599  0.00  0.00    +0.000 C 
ATOM     14  O   UNL     1     -45.891 -19.846 -25.487  0.00  0.00    +0.000 OA
ATOM     15  N   UNL     1     -45.271 -17.618 -25.424  0.00  0.00    +0.000 N 
ATOM     16  H   UNL     1     -46.193 -17.388 -25.167  0.00  0.00    +0.000 HD
BRANCH  15  17
ATOM     17  C   UNL     1     -44.328 -16.524 -25.598  0.00  0.00    +0.000 C 
BRANCH  17  18
ATOM     18  C   UNL     1     -44.972 -15.416 -26.411  0.00  0.00    +0.000 C 
BRANCH  18  19
ATOM     19  C   UNL     1     -46.058 -14.730 -25.599  0.00  0.00    +0.000 C 
BRANCH  19  20
ATOM     20  N   UNL     1     -46.408 -13.452 -26.198  0.00  0.00    +0.000 NA
ATOM     21  C   UNL     1     -45.434 -12.479 -25.721  0.00  0.00    +0.000 C 
ATOM     22  C   UNL     1     -46.050 -11.082 -25.604  0.00  0.00    +0.000 C 
ATOM     23  C   UNL     1     -47.034 -10.721 -26.722  0.00  0.00    +0.000 C 
ATOM     24  C   UNL     1     -46.545 -11.135 -28.103  0.00  0.00    +0.000 C 
ATOM     25  C   UNL     1     -46.991 -12.561 -28.412  0.00  0.00    +0.000 C 
ATOM     26  C   UNL     1     -46.182 -13.592 -27.632  0.00  0.00    +0.000 C 
ENDBRANCH  19  20
ENDBRANCH  18  19
ENDBRANCH  17  18
ENDBRANCH  15  17
ENDBRANCH  11  13
BRANCH   1  27
ATOM     27  S   UNL     1     -42.401 -19.821 -20.863  0.00  0.00    +0.000 S 
ATOM     28  O   UNL     1     -42.224 -21.166 -20.216  0.00  0.00    +0.000 OA
ATOM     29  O   UNL     1     -41.487 -18.823 -20.208  0.00  0.00    +0.000 OA
BRANCH  27  36
ATOM     30  C   UNL     1     -43.976 -19.413 -18.194  0.00  0.00    +0.000 C 
ATOM     31  C   UNL     1     -44.681 -19.847 -19.482  0.00  0.00    +0.000 C 
ATOM     32  C   UNL     1     -46.158 -19.453 -19.438  0.00  0.00    +0.000 C 
ATOM     33  C   UNL     1     -46.320 -17.935 -19.543  0.00  0.00    +0.000 C 
ATOM     34  C   UNL     1     -45.581 -17.397 -20.765  0.00  0.00    +0.000 C 
ATOM     35  C   UNL     1     -44.122 -17.843 -20.723  0.00  0.00    +0.000 C 
ATOM     36  N   UNL     1     -44.058 -19.307 -20.706  0.00  0.00    +0.000 NA
ENDBRANCH  27  36
ENDBRANCH   1  27
TORSDOF 7
ENDMDL
