MODEL 1
REMARK VINA RESULT:      -7.4      0.000      0.000
REMARK  Name = ZINC000009312448
REMARK  7 active torsions:
REMARK  status: ('A' for Active; 'I' for Inactive)
REMARK    1  A    between atoms: C_1  and  C_12
REMARK    2  A    between atoms: C_2  and  C_19
REMARK    3  A    between atoms: C_3  and  O_4
REMARK    4  A    between atoms: N_7  and  C_31
REMARK    5  A    between atoms: C_9  and  C_16
REMARK    6  A    between atoms: C_19  and  C_21
REMARK    7  A    between atoms: C_31  and  C_32
REMARK                            x       y       z     vdW  Elec       q    Type
REMARK                         _______ _______ _______ _____ _____    ______ ____
ROOT
ATOM      1  C   UNL     1     -43.674 -18.010 -23.093  0.00  0.00    +0.000 C 
ATOM      2  C   UNL     1     -44.565 -18.774 -24.053  0.00  0.00    +0.000 C 
ATOM      3  C   UNL     1     -44.229 -20.064 -24.071  0.00  0.00    +0.000 C 
ATOM      4  C   UNL     1     -43.155 -20.272 -23.134  0.00  0.00    +0.000 C 
ATOM      5  O   UNL     1     -42.565 -21.364 -22.920  0.00  0.00    +0.000 OA
ATOM      6  N   UNL     1     -42.821 -19.044 -22.512  0.00  0.00    +0.000 N 
ENDROOT
BRANCH   1  10
ATOM      7  C   UNL     1     -45.925 -16.021 -19.989  0.00  0.00    +0.000 A 
ATOM      8  C   UNL     1     -46.024 -17.415 -20.155  0.00  0.00    +0.000 A 
ATOM      9  C   UNL     1     -45.307 -18.065 -21.160  0.00  0.00    +0.000 A 
ATOM     10  C   UNL     1     -44.478 -17.332 -22.023  0.00  0.00    +0.000 A 
ATOM     11  C   UNL     1     -44.371 -15.948 -21.865  0.00  0.00    +0.000 A 
ATOM     12  C   UNL     1     -45.089 -15.298 -20.858  0.00  0.00    +0.000 A 
BRANCH   7  14
ATOM     13  C   UNL     1     -45.732 -14.836 -17.814  0.00  0.00    +0.000 C 
ATOM     14  C   UNL     1     -46.691 -15.293 -18.900  0.00  0.00    +0.000 C 
ATOM     15  C   UNL     1     -47.383 -14.076 -19.484  0.00  0.00    +0.000 C 
ATOM     16  C   UNL     1     -47.753 -16.166 -18.246  0.00  0.00    +0.000 C 
ENDBRANCH   7  14
ENDBRANCH   1  10
BRANCH   3  17
ATOM     17  O   UNL     1     -44.778 -21.038 -24.897  0.00  0.00    +0.000 OA
ATOM     18  H   UNL     1     -45.681 -21.272 -24.809  0.00  0.00    +0.000 HD
ENDBRANCH   3  17
BRANCH   2  19
ATOM     19  C   UNL     1     -45.576 -18.134 -24.916  0.00  0.00    +0.000 C 
ATOM     20  O   UNL     1     -46.653 -18.751 -25.137  0.00  0.00    +0.000 OA
BRANCH  19  21
ATOM     21  C   UNL     1     -45.350 -16.825 -25.566  0.00  0.00    +0.000 A 
ATOM     22  C   UNL     1     -44.376 -16.702 -26.571  0.00  0.00    +0.000 A 
ATOM     23  C   UNL     1     -44.132 -15.465 -27.176  0.00  0.00    +0.000 A 
ATOM     24  C   UNL     1     -44.854 -14.340 -26.774  0.00  0.00    +0.000 A 
ATOM     25  C   UNL     1     -45.801 -14.445 -25.746  0.00  0.00    +0.000 A 
ATOM     26  C   UNL     1     -46.053 -15.683 -25.150  0.00  0.00    +0.000 A 
ATOM     27  O   UNL     1     -46.479 -13.298 -25.327  0.00  0.00    +0.000 OA
ATOM     28  C   UNL     1     -46.029 -11.999 -25.716  0.00  0.00    +0.000 C 
ATOM     29  C   UNL     1     -45.554 -12.017 -27.171  0.00  0.00    +0.000 C 
ATOM     30  O   UNL     1     -44.645 -13.100 -27.382  0.00  0.00    +0.000 OA
ENDBRANCH  19  21
ENDBRANCH   2  19
BRANCH   6  31
ATOM     31  C   UNL     1     -41.622 -18.789 -21.727  0.00  0.00    +0.000 C 
BRANCH  31  32
ATOM     32  C   UNL     1     -41.947 -18.818 -20.273  0.00  0.00    +0.000 A 
ATOM     33  C   UNL     1     -41.930 -17.638 -19.528  0.00  0.00    +0.000 A 
ATOM     34  C   UNL     1     -42.271 -17.666 -18.174  0.00  0.00    +0.000 A 
ATOM     35  C   UNL     1     -42.628 -18.883 -17.587  0.00  0.00    +0.000 A 
ATOM     36  N   UNL     1     -42.644 -20.021 -18.332  0.00  0.00    +0.000 NA
ATOM     37  C   UNL     1     -42.317 -20.013 -19.651  0.00  0.00    +0.000 A 
ENDBRANCH  31  32
ENDBRANCH   6  31
TORSDOF 7
ENDMDL
MODEL 2
REMARK VINA RESULT:      -6.5      2.796      5.804
REMARK  Name = ZINC000009312448
REMARK  7 active torsions:
REMARK  status: ('A' for Active; 'I' for Inactive)
REMARK    1  A    between atoms: C_1  and  C_12
REMARK    2  A    between atoms: C_2  and  C_19
REMARK    3  A    between atoms: C_3  and  O_4
REMARK    4  A    between atoms: N_7  and  C_31
REMARK    5  A    between atoms: C_9  and  C_16
REMARK    6  A    between atoms: C_19  and  C_21
REMARK    7  A    between atoms: C_31  and  C_32
REMARK                            x       y       z     vdW  Elec       q    Type
REMARK                         _______ _______ _______ _____ _____    ______ ____
ROOT
ATOM      1  C   UNL     1     -44.680 -16.325 -20.719  0.00  0.00    +0.000 C 
ATOM      2  C   UNL     1     -45.169 -17.758 -20.676  0.00  0.00    +0.000 C 
ATOM      3  C   UNL     1     -46.229 -17.863 -19.874  0.00  0.00    +0.000 C 
ATOM      4  C   UNL     1     -46.550 -16.556 -19.365  0.00  0.00    +0.000 C 
ATOM      5  O   UNL     1     -47.472 -16.289 -18.549  0.00  0.00    +0.000 OA
ATOM      6  N   UNL     1     -45.638 -15.604 -19.886  0.00  0.00    +0.000 N 
ENDROOT
BRANCH   1  10
ATOM      7  C   UNL     1     -44.766 -14.821 -24.768  0.00  0.00    +0.000 A 
ATOM      8  C   UNL     1     -43.537 -15.044 -24.119  0.00  0.00    +0.000 A 
ATOM      9  C   UNL     1     -43.500 -15.522 -22.809  0.00  0.00    +0.000 A 
ATOM     10  C   UNL     1     -44.693 -15.784 -22.119  0.00  0.00    +0.000 A 
ATOM     11  C   UNL     1     -45.918 -15.567 -22.754  0.00  0.00    +0.000 A 
ATOM     12  C   UNL     1     -45.955 -15.089 -24.066  0.00  0.00    +0.000 A 
BRANCH   7  14
ATOM     13  C   UNL     1     -46.186 -13.665 -26.447  0.00  0.00    +0.000 C 
ATOM     14  C   UNL     1     -44.832 -14.306 -26.193  0.00  0.00    +0.000 C 
ATOM     15  C   UNL     1     -43.750 -13.265 -26.415  0.00  0.00    +0.000 C 
ATOM     16  C   UNL     1     -44.638 -15.409 -27.225  0.00  0.00    +0.000 C 
ENDBRANCH   7  14
ENDBRANCH   1  10
BRANCH   3  17
ATOM     17  O   UNL     1     -46.882 -19.043 -19.536  0.00  0.00    +0.000 OA
ATOM     18  H   UNL     1     -47.700 -19.012 -19.079  0.00  0.00    +0.000 HD
ENDBRANCH   3  17
BRANCH   2  19
ATOM     19  C   UNL     1     -44.481 -18.879 -21.347  0.00  0.00    +0.000 C 
ATOM     20  O   UNL     1     -43.898 -19.739 -20.632  0.00  0.00    +0.000 OA
BRANCH  19  21
ATOM     21  C   UNL     1     -44.410 -18.998 -22.819  0.00  0.00    +0.000 A 
ATOM     22  C   UNL     1     -45.590 -18.979 -23.580  0.00  0.00    +0.000 A 
ATOM     23  C   UNL     1     -45.541 -19.117 -24.971  0.00  0.00    +0.000 A 
ATOM     24  C   UNL     1     -44.311 -19.286 -25.609  0.00  0.00    +0.000 A 
ATOM     25  C   UNL     1     -43.132 -19.346 -24.855  0.00  0.00    +0.000 A 
ATOM     26  C   UNL     1     -43.180 -19.195 -23.467  0.00  0.00    +0.000 A 
ATOM     27  O   UNL     1     -41.917 -19.562 -25.509  0.00  0.00    +0.000 OA
ATOM     28  C   UNL     1     -41.886 -20.003 -26.868  0.00  0.00    +0.000 C 
ATOM     29  C   UNL     1     -42.981 -19.304 -27.677  0.00  0.00    +0.000 C 
ATOM     30  O   UNL     1     -44.236 -19.401 -27.000  0.00  0.00    +0.000 OA
ENDBRANCH  19  21
ENDBRANCH   2  19
BRANCH   6  31
ATOM     31  C   UNL     1     -45.459 -14.245 -19.396  0.00  0.00    +0.000 C 
BRANCH  31  32
ATOM     32  C   UNL     1     -44.099 -14.089 -18.809  0.00  0.00    +0.000 A 
ATOM     33  C   UNL     1     -43.123 -13.355 -19.485  0.00  0.00    +0.000 A 
ATOM     34  C   UNL     1     -41.862 -13.182 -18.913  0.00  0.00    +0.000 A 
ATOM     35  C   UNL     1     -41.598 -13.747 -17.662  0.00  0.00    +0.000 A 
ATOM     36  N   UNL     1     -42.564 -14.454 -17.016  0.00  0.00    +0.000 NA
ATOM     37  C   UNL     1     -43.798 -14.632 -17.557  0.00  0.00    +0.000 A 
ENDBRANCH  31  32
ENDBRANCH   6  31
TORSDOF 7
ENDMDL
MODEL 3
REMARK VINA RESULT:      -6.5      2.993      5.937
REMARK  Name = ZINC000009312448
REMARK  7 active torsions:
REMARK  status: ('A' for Active; 'I' for Inactive)
REMARK    1  A    between atoms: C_1  and  C_12
REMARK    2  A    between atoms: C_2  and  C_19
REMARK    3  A    between atoms: C_3  and  O_4
REMARK    4  A    between atoms: N_7  and  C_31
REMARK    5  A    between atoms: C_9  and  C_16
REMARK    6  A    between atoms: C_19  and  C_21
REMARK    7  A    between atoms: C_31  and  C_32
REMARK                            x       y       z     vdW  Elec       q    Type
REMARK                         _______ _______ _______ _____ _____    ______ ____
ROOT
ATOM      1  C   UNL     1     -43.812 -19.954 -24.475  0.00  0.00    +0.000 C 
ATOM      2  C   UNL     1     -44.764 -18.917 -23.913  0.00  0.00    +0.000 C 
ATOM      3  C   UNL     1     -44.623 -18.827 -22.590  0.00  0.00    +0.000 C 
ATOM      4  C   UNL     1     -43.580 -19.730 -22.177  0.00  0.00    +0.000 C 
ATOM      5  O   UNL     1     -43.207 -19.931 -20.990  0.00  0.00    +0.000 OA
ATOM      6  N   UNL     1     -43.058 -20.404 -23.308  0.00  0.00    +0.000 N 
ENDROOT
BRANCH   1  10
ATOM      7  C   UNL     1     -41.134 -18.296 -27.431  0.00  0.00    +0.000 A 
ATOM      8  C   UNL     1     -41.122 -17.810 -26.110  0.00  0.00    +0.000 A 
ATOM      9  C   UNL     1     -41.989 -18.334 -25.151  0.00  0.00    +0.000 A 
ATOM     10  C   UNL     1     -42.889 -19.354 -25.495  0.00  0.00    +0.000 A 
ATOM     11  C   UNL     1     -42.908 -19.844 -26.803  0.00  0.00    +0.000 A 
ATOM     12  C   UNL     1     -42.040 -19.320 -27.763  0.00  0.00    +0.000 A 
BRANCH   7  14
ATOM     13  C   UNL     1     -38.808 -18.331 -28.303  0.00  0.00    +0.000 C 
ATOM     14  C   UNL     1     -40.197 -17.746 -28.490  0.00  0.00    +0.000 C 
ATOM     15  C   UNL     1     -40.703 -18.122 -29.871  0.00  0.00    +0.000 C 
ATOM     16  C   UNL     1     -40.075 -16.229 -28.434  0.00  0.00    +0.000 C 
ENDBRANCH   7  14
ENDBRANCH   1  10
BRANCH   3  17
ATOM     17  O   UNL     1     -45.391 -18.039 -21.740  0.00  0.00    +0.000 OA
ATOM     18  H   UNL     1     -45.315 -18.141 -20.811  0.00  0.00    +0.000 HD
ENDBRANCH   3  17
BRANCH   2  19
ATOM     19  C   UNL     1     -45.772 -18.206 -24.723  0.00  0.00    +0.000 C 
ATOM     20  O   UNL     1     -46.802 -18.835 -25.087  0.00  0.00    +0.000 OA
BRANCH  19  21
ATOM     21  C   UNL     1     -45.591 -16.805 -25.161  0.00  0.00    +0.000 A 
ATOM     22  C   UNL     1     -44.918 -16.529 -26.363  0.00  0.00    +0.000 A 
ATOM     23  C   UNL     1     -44.716 -15.209 -26.778  0.00  0.00    +0.000 A 
ATOM     24  C   UNL     1     -45.178 -14.155 -25.988  0.00  0.00    +0.000 A 
ATOM     25  C   UNL     1     -45.816 -14.419 -24.769  0.00  0.00    +0.000 A 
ATOM     26  C   UNL     1     -46.029 -15.738 -24.361  0.00  0.00    +0.000 A 
ATOM     27  O   UNL     1     -46.229 -13.349 -23.971  0.00  0.00    +0.000 OA
ATOM     28  C   UNL     1     -45.765 -12.022 -24.231  0.00  0.00    +0.000 C 
ATOM     29  C   UNL     1     -45.707 -11.767 -25.738  0.00  0.00    +0.000 C 
ATOM     30  O   UNL     1     -45.010 -12.828 -26.395  0.00  0.00    +0.000 OA
ENDBRANCH  19  21
ENDBRANCH   2  19
BRANCH   6  31
ATOM     31  C   UNL     1     -42.202 -21.581 -23.274  0.00  0.00    +0.000 C 
BRANCH  31  32
ATOM     32  C   UNL     1     -40.812 -21.213 -23.667  0.00  0.00    +0.000 A 
ATOM     33  C   UNL     1     -40.292 -21.645 -24.888  0.00  0.00    +0.000 A 
ATOM     34  C   UNL     1     -39.003 -21.268 -25.267  0.00  0.00    +0.000 A 
ATOM     35  C   UNL     1     -38.252 -20.455 -24.412  0.00  0.00    +0.000 A 
ATOM     36  N   UNL     1     -38.779 -20.040 -23.229  0.00  0.00    +0.000 NA
ATOM     37  C   UNL     1     -40.033 -20.397 -22.844  0.00  0.00    +0.000 A 
ENDBRANCH  31  32
ENDBRANCH   6  31
TORSDOF 7
ENDMDL
