MODEL 1
REMARK VINA RESULT:      -7.5      0.000      0.000
REMARK  Name = ZINC000100627416
REMARK  4 active torsions:
REMARK  status: ('A' for Active; 'I' for Inactive)
REMARK    1  A    between atoms: C_12  and  C_19
REMARK    2  A    between atoms: N_15  and  C_28
REMARK    3  A    between atoms: N_21  and  C_23
REMARK    4  A    between atoms: C_28  and  C_29
REMARK                            x       y       z     vdW  Elec       q    Type
REMARK                         _______ _______ _______ _____ _____    ______ ____
ROOT
ATOM      1  C   UNL     1     -45.748 -18.876 -19.639  0.00  0.00    +0.000 C 
ATOM      2  C   UNL     1     -46.024 -17.423 -19.832  0.00  0.00    +0.000 A 
ATOM      3  C   UNL     1     -46.438 -16.661 -18.742  0.00  0.00    +0.000 A 
ATOM      4  C   UNL     1     -46.699 -15.303 -18.901  0.00  0.00    +0.000 A 
ATOM      5  C   UNL     1     -46.540 -14.720 -20.158  0.00  0.00    +0.000 A 
ATOM      6  N   UNL     1     -46.135 -15.462 -21.231  0.00  0.00    +0.000 N 
ATOM      7  C   UNL     1     -45.874 -16.806 -21.086  0.00  0.00    +0.000 A 
ATOM      8  N   UNL     1     -45.468 -17.541 -22.156  0.00  0.00    +0.000 NA
ATOM      9  C   UNL     1     -45.302 -16.986 -23.386  0.00  0.00    +0.000 A 
ATOM     10  C   UNL     1     -45.571 -15.619 -23.558  0.00  0.00    +0.000 A 
ATOM     11  C   UNL     1     -45.420 -15.052 -24.820  0.00  0.00    +0.000 A 
ATOM     12  C   UNL     1     -45.017 -15.823 -25.912  0.00  0.00    +0.000 A 
ATOM     13  C   UNL     1     -44.761 -17.202 -25.704  0.00  0.00    +0.000 A 
ATOM     14  N   UNL     1     -44.432 -17.959 -26.703  0.00  0.00    +0.000 NA
ATOM     15  N   UNL     1     -44.885 -17.747 -24.447  0.00  0.00    +0.000 N 
ATOM     16  C   UNL     1     -45.989 -14.863 -22.454  0.00  0.00    +0.000 A 
ATOM     17  O   UNL     1     -46.230 -13.629 -22.595  0.00  0.00    +0.000 OA
ATOM     18  H   UNL     1     -44.343 -17.574 -27.604  0.00  0.00    +0.000 HD
ENDROOT
BRANCH  12  19
ATOM     19  C   UNL     1     -44.883 -15.147 -27.230  0.00  0.00    +0.000 C 
ATOM     20  O   UNL     1     -43.969 -15.507 -28.023  0.00  0.00    +0.000 OA
ATOM     21  N   UNL     1     -45.782 -14.104 -27.623  0.00  0.00    +0.000 N 
ATOM     22  H   UNL     1     -46.509 -13.854 -27.009  0.00  0.00    +0.000 HD
BRANCH  21  23
ATOM     23  C   UNL     1     -45.667 -13.399 -28.892  0.00  0.00    +0.000 C 
ATOM     24  C   UNL     1     -44.674 -12.253 -28.767  0.00  0.00    +0.000 C 
ATOM     25  C   UNL     1     -45.458 -10.973 -28.963  0.00  0.00    +0.000 C 
ATOM     26  C   UNL     1     -46.707 -11.375 -29.710  0.00  0.00    +0.000 C 
ATOM     27  C   UNL     1     -47.005 -12.783 -29.247  0.00  0.00    +0.000 C 
ENDBRANCH  21  23
ENDBRANCH  12  19
BRANCH  15  28
ATOM     28  C   UNL     1     -44.587 -19.172 -24.235  0.00  0.00    +0.000 C 
BRANCH  28  29
ATOM     29  C   UNL     1     -43.198 -19.392 -23.626  0.00  0.00    +0.000 C 
ATOM     30  C   UNL     1     -42.227 -19.977 -24.628  0.00  0.00    +0.000 C 
ATOM     31  C   UNL     1     -41.563 -21.094 -23.886  0.00  0.00    +0.000 C 
ATOM     32  C   UNL     1     -42.038 -20.907 -22.466  0.00  0.00    +0.000 C 
ATOM     33  O   UNL     1     -43.263 -20.227 -22.498  0.00  0.00    +0.000 OA
ENDBRANCH  28  29
ENDBRANCH  15  28
TORSDOF 4
ENDMDL
MODEL 2
REMARK VINA RESULT:      -7.0      7.404     12.264
REMARK  Name = ZINC000100627416
REMARK  4 active torsions:
REMARK  status: ('A' for Active; 'I' for Inactive)
REMARK    1  A    between atoms: C_12  and  C_19
REMARK    2  A    between atoms: N_15  and  C_28
REMARK    3  A    between atoms: N_21  and  C_23
REMARK    4  A    between atoms: C_28  and  C_29
REMARK                            x       y       z     vdW  Elec       q    Type
REMARK                         _______ _______ _______ _____ _____    ______ ____
ROOT
ATOM      1  C   UNL     1     -47.371  -2.082 -26.200  0.00  0.00    +0.000 C 
ATOM      2  C   UNL     1     -47.190  -3.344 -25.427  0.00  0.00    +0.000 A 
ATOM      3  C   UNL     1     -47.203  -3.294 -24.035  0.00  0.00    +0.000 A 
ATOM      4  C   UNL     1     -47.038  -4.461 -23.294  0.00  0.00    +0.000 A 
ATOM      5  C   UNL     1     -46.860  -5.673 -23.961  0.00  0.00    +0.000 A 
ATOM      6  N   UNL     1     -46.846  -5.729 -25.326  0.00  0.00    +0.000 N 
ATOM      7  C   UNL     1     -47.008  -4.581 -26.070  0.00  0.00    +0.000 A 
ATOM      8  N   UNL     1     -46.995  -4.642 -27.428  0.00  0.00    +0.000 NA
ATOM      9  C   UNL     1     -46.830  -5.816 -28.093  0.00  0.00    +0.000 A 
ATOM     10  C   UNL     1     -46.655  -6.997 -27.355  0.00  0.00    +0.000 A 
ATOM     11  C   UNL     1     -46.467  -8.198 -28.032  0.00  0.00    +0.000 A 
ATOM     12  C   UNL     1     -46.441  -8.241 -29.428  0.00  0.00    +0.000 A 
ATOM     13  C   UNL     1     -46.614  -7.027 -30.141  0.00  0.00    +0.000 A 
ATOM     14  N   UNL     1     -46.548  -7.020 -31.435  0.00  0.00    +0.000 NA
ATOM     15  N   UNL     1     -46.828  -5.850 -29.463  0.00  0.00    +0.000 N 
ATOM     16  C   UNL     1     -46.668  -6.934 -25.955  0.00  0.00    +0.000 A 
ATOM     17  O   UNL     1     -46.515  -7.992 -25.278  0.00  0.00    +0.000 OA
ATOM     18  H   UNL     1     -46.395  -7.860 -31.925  0.00  0.00    +0.000 HD
ENDROOT
BRANCH  12  19
ATOM     19  C   UNL     1     -46.231  -9.560 -30.080  0.00  0.00    +0.000 C 
ATOM     20  O   UNL     1     -46.803  -9.810 -31.177  0.00  0.00    +0.000 OA
ATOM     21  N   UNL     1     -45.378 -10.550 -29.494  0.00  0.00    +0.000 N 
ATOM     22  H   UNL     1     -44.913 -10.332 -28.654  0.00  0.00    +0.000 HD
BRANCH  21  23
ATOM     23  C   UNL     1     -45.168 -11.863 -30.086  0.00  0.00    +0.000 C 
ATOM     24  C   UNL     1     -46.226 -12.837 -29.590  0.00  0.00    +0.000 C 
ATOM     25  C   UNL     1     -45.502 -13.894 -28.782  0.00  0.00    +0.000 C 
ATOM     26  C   UNL     1     -44.068 -13.849 -29.254  0.00  0.00    +0.000 C 
ATOM     27  C   UNL     1     -43.826 -12.407 -29.639  0.00  0.00    +0.000 C 
ENDBRANCH  21  23
ENDBRANCH  12  19
BRANCH  15  28
ATOM     28  C   UNL     1     -47.038  -4.601 -30.213  0.00  0.00    +0.000 C 
BRANCH  28  29
ATOM     29  C   UNL     1     -45.723  -3.995 -30.714  0.00  0.00    +0.000 C 
ATOM     30  C   UNL     1     -45.760  -2.482 -30.712  0.00  0.00    +0.000 C 
ATOM     31  C   UNL     1     -45.215  -2.102 -32.053  0.00  0.00    +0.000 C 
ATOM     32  C   UNL     1     -44.702  -3.406 -32.610  0.00  0.00    +0.000 C 
ATOM     33  O   UNL     1     -45.411  -4.452 -32.005  0.00  0.00    +0.000 OA
ENDBRANCH  28  29
ENDBRANCH  15  28
TORSDOF 4
ENDMDL
MODEL 3
REMARK VINA RESULT:      -7.0      3.172      6.028
REMARK  Name = ZINC000100627416
REMARK  4 active torsions:
REMARK  status: ('A' for Active; 'I' for Inactive)
REMARK    1  A    between atoms: C_12  and  C_19
REMARK    2  A    between atoms: N_15  and  C_28
REMARK    3  A    between atoms: N_21  and  C_23
REMARK    4  A    between atoms: C_28  and  C_29
REMARK                            x       y       z     vdW  Elec       q    Type
REMARK                         _______ _______ _______ _____ _____    ______ ____
ROOT
ATOM      1  C   UNL     1     -46.130 -18.167 -19.915  0.00  0.00    +0.000 C 
ATOM      2  C   UNL     1     -44.841 -18.917 -19.908  0.00  0.00    +0.000 A 
ATOM      3  C   UNL     1     -44.321 -19.360 -18.694  0.00  0.00    +0.000 A 
ATOM      4  C   UNL     1     -43.120 -20.064 -18.667  0.00  0.00    +0.000 A 
ATOM      5  C   UNL     1     -42.450 -20.317 -19.863  0.00  0.00    +0.000 A 
ATOM      6  N   UNL     1     -42.955 -19.885 -21.057  0.00  0.00    +0.000 N 
ATOM      7  C   UNL     1     -44.141 -19.188 -21.097  0.00  0.00    +0.000 A 
ATOM      8  N   UNL     1     -44.641 -18.762 -22.287  0.00  0.00    +0.000 NA
ATOM      9  C   UNL     1     -44.004 -19.007 -23.462  0.00  0.00    +0.000 A 
ATOM     10  C   UNL     1     -42.789 -19.708 -23.444  0.00  0.00    +0.000 A 
ATOM     11  C   UNL     1     -42.124 -19.944 -24.644  0.00  0.00    +0.000 A 
ATOM     12  C   UNL     1     -42.643 -19.487 -25.857  0.00  0.00    +0.000 A 
ATOM     13  C   UNL     1     -43.869 -18.775 -25.837  0.00  0.00    +0.000 A 
ATOM     14  N   UNL     1     -44.358 -18.293 -26.937  0.00  0.00    +0.000 NA
ATOM     15  N   UNL     1     -44.533 -18.572 -24.650  0.00  0.00    +0.000 N 
ATOM     16  C   UNL     1     -42.274 -20.148 -22.217  0.00  0.00    +0.000 A 
ATOM     17  O   UNL     1     -41.181 -20.784 -22.187  0.00  0.00    +0.000 OA
ATOM     18  H   UNL     1     -43.886 -18.436 -27.789  0.00  0.00    +0.000 HD
ENDROOT
BRANCH  12  19
ATOM     19  C   UNL     1     -41.873 -19.774 -27.096  0.00  0.00    +0.000 C 
ATOM     20  O   UNL     1     -40.622 -19.607 -27.103  0.00  0.00    +0.000 OA
ATOM     21  N   UNL     1     -42.523 -20.251 -28.280  0.00  0.00    +0.000 N 
ATOM     22  H   UNL     1     -43.495 -20.407 -28.252  0.00  0.00    +0.000 HD
BRANCH  21  23
ATOM     23  C   UNL     1     -41.809 -20.516 -29.520  0.00  0.00    +0.000 C 
ATOM     24  C   UNL     1     -42.256 -19.544 -30.601  0.00  0.00    +0.000 C 
ATOM     25  C   UNL     1     -42.939 -20.366 -31.673  0.00  0.00    +0.000 C 
ATOM     26  C   UNL     1     -42.421 -21.773 -31.494  0.00  0.00    +0.000 C 
ATOM     27  C   UNL     1     -42.157 -21.907 -30.012  0.00  0.00    +0.000 C 
ENDBRANCH  21  23
ENDBRANCH  12  19
BRANCH  15  28
ATOM     28  C   UNL     1     -45.821 -17.860 -24.644  0.00  0.00    +0.000 C 
BRANCH  28  29
ATOM     29  C   UNL     1     -45.660 -16.369 -24.328  0.00  0.00    +0.000 C 
ATOM     30  C   UNL     1     -46.700 -15.525 -25.033  0.00  0.00    +0.000 C 
ATOM     31  C   UNL     1     -45.914 -14.397 -25.626  0.00  0.00    +0.000 C 
ATOM     32  C   UNL     1     -44.543 -14.564 -25.020  0.00  0.00    +0.000 C 
ATOM     33  O   UNL     1     -44.377 -15.911 -24.671  0.00  0.00    +0.000 OA
ENDBRANCH  28  29
ENDBRANCH  15  28
TORSDOF 4
ENDMDL
