MODEL 1
REMARK VINA RESULT:      -7.8      0.000      0.000
REMARK  Name = ZINC000067291103 ZINC67291103 MCULE-7927403924 MolPort-019-718-401 PubChem-51366855
REMARK  6 active torsions:
REMARK  status: ('A' for Active; 'I' for Inactive)
REMARK    1  A    between atoms: C_1  and  S_12
REMARK    2  A    between atoms: N_11  and  C_26
REMARK    3  A    between atoms: S_12  and  C_13
REMARK    4  A    between atoms: C_13  and  C_15
REMARK    5  A    between atoms: N_14  and  C_22
REMARK    6  A    between atoms: C_26  and  C_27
REMARK                            x       y       z     vdW  Elec       q    Type
REMARK                         _______ _______ _______ _____ _____    ______ ____
ROOT
ATOM      1  C   UNL     1     -45.966  -6.692 -29.877  0.00  0.00    +0.000 A 
ATOM      2  N   UNL     1     -45.858  -6.897 -28.538  0.00  0.00    +0.000 NA
ATOM      3  C   UNL     1     -46.369  -6.016 -27.646  0.00  0.00    +0.000 A 
ATOM      4  C   UNL     1     -46.246  -6.256 -26.275  0.00  0.00    +0.000 A 
ATOM      5  C   UNL     1     -46.777  -5.346 -25.355  0.00  0.00    +0.000 A 
ATOM      6  C   UNL     1     -47.433  -4.196 -25.805  0.00  0.00    +0.000 A 
ATOM      7  C   UNL     1     -47.559  -3.953 -27.177  0.00  0.00    +0.000 A 
ATOM      8  C   UNL     1     -47.028  -4.861 -28.104  0.00  0.00    +0.000 A 
ATOM      9  C   UNL     1     -47.128  -4.655 -29.486  0.00  0.00    +0.000 A 
ATOM     10  O   UNL     1     -47.708  -3.621 -29.926  0.00  0.00    +0.000 OA
ATOM     11  N   UNL     1     -46.593  -5.569 -30.355  0.00  0.00    +0.000 N 
ENDROOT
BRANCH   1  12
ATOM     12  S   UNL     1     -45.280  -7.934 -30.981  0.00  0.00    +0.000 S 
BRANCH  12  13
ATOM     13  C   UNL     1     -46.502  -9.170 -30.452  0.00  0.00    +0.000 C 
BRANCH  13  15
ATOM     14  N   UNL     1     -46.494 -11.497 -29.492  0.00  0.00    +0.000 N 
ATOM     15  C   UNL     1     -45.839 -10.233 -29.653  0.00  0.00    +0.000 C 
ATOM     16  O   UNL     1     -44.708 -10.012 -29.142  0.00  0.00    +0.000 OA
ATOM     17  H   UNL     1     -47.373 -11.595 -29.926  0.00  0.00    +0.000 HD
BRANCH  14  22
ATOM     18  C   UNL     1     -44.471 -16.072 -26.702  0.00  0.00    +0.000 C 
ATOM     19  C   UNL     1     -45.012 -14.877 -27.407  0.00  0.00    +0.000 A 
ATOM     20  C   UNL     1     -44.568 -14.584 -28.700  0.00  0.00    +0.000 A 
ATOM     21  C   UNL     1     -45.064 -13.465 -29.374  0.00  0.00    +0.000 A 
ATOM     22  C   UNL     1     -46.008 -12.632 -28.766  0.00  0.00    +0.000 A 
ATOM     23  C   UNL     1     -46.451 -12.929 -27.468  0.00  0.00    +0.000 A 
ATOM     24  C   UNL     1     -45.955 -14.046 -26.788  0.00  0.00    +0.000 A 
ATOM     25  F   UNL     1     -46.397 -14.314 -25.534  0.00  0.00    +0.000 F 
ENDBRANCH  14  22
ENDBRANCH  13  15
ENDBRANCH  12  13
ENDBRANCH   1  12
BRANCH  11  26
ATOM     26  C   UNL     1     -46.676  -5.314 -31.797  0.00  0.00    +0.000 C 
BRANCH  26  27
ATOM     27  C   UNL     1     -45.695  -4.273 -32.241  0.00  0.00    +0.000 A 
ATOM     28  C   UNL     1     -46.151  -3.221 -33.067  0.00  0.00    +0.000 A 
ATOM     29  C   UNL     1     -45.260  -2.239 -33.535  0.00  0.00    +0.000 A 
ATOM     30  C   UNL     1     -43.925  -2.351 -33.158  0.00  0.00    +0.000 A 
ATOM     31  O   UNL     1     -42.870  -1.520 -33.477  0.00  0.00    +0.000 OA
ATOM     32  C   UNL     1     -41.687  -2.047 -32.860  0.00  0.00    +0.000 C 
ATOM     33  O   UNL     1     -42.121  -3.226 -32.169  0.00  0.00    +0.000 OA
ATOM     34  C   UNL     1     -43.479  -3.367 -32.377  0.00  0.00    +0.000 A 
ATOM     35  C   UNL     1     -44.329  -4.362 -31.901  0.00  0.00    +0.000 A 
ENDBRANCH  26  27
ENDBRANCH  11  26
TORSDOF 6
ENDMDL
MODEL 2
REMARK VINA RESULT:      -7.5      2.407      5.529
REMARK  Name = ZINC000067291103 ZINC67291103 MCULE-7927403924 MolPort-019-718-401 PubChem-51366855
REMARK  6 active torsions:
REMARK  status: ('A' for Active; 'I' for Inactive)
REMARK    1  A    between atoms: C_1  and  S_12
REMARK    2  A    between atoms: N_11  and  C_26
REMARK    3  A    between atoms: S_12  and  C_13
REMARK    4  A    between atoms: C_13  and  C_15
REMARK    5  A    between atoms: N_14  and  C_22
REMARK    6  A    between atoms: C_26  and  C_27
REMARK                            x       y       z     vdW  Elec       q    Type
REMARK                         _______ _______ _______ _____ _____    ______ ____
ROOT
ATOM      1  C   UNL     1     -45.966  -5.075 -32.581  0.00  0.00    +0.000 A 
ATOM      2  N   UNL     1     -45.302  -4.216 -33.398  0.00  0.00    +0.000 NA
ATOM      3  C   UNL     1     -44.974  -2.967 -32.990  0.00  0.00    +0.000 A 
ATOM      4  C   UNL     1     -44.288  -2.107 -33.852  0.00  0.00    +0.000 A 
ATOM      5  C   UNL     1     -43.948  -0.819 -33.428  0.00  0.00    +0.000 A 
ATOM      6  C   UNL     1     -44.292  -0.389 -32.142  0.00  0.00    +0.000 A 
ATOM      7  C   UNL     1     -44.978  -1.247 -31.277  0.00  0.00    +0.000 A 
ATOM      8  C   UNL     1     -45.323  -2.540 -31.696  0.00  0.00    +0.000 A 
ATOM      9  C   UNL     1     -46.014  -3.431 -30.865  0.00  0.00    +0.000 A 
ATOM     10  O   UNL     1     -46.346  -3.072 -29.699  0.00  0.00    +0.000 OA
ATOM     11  N   UNL     1     -46.330  -4.685 -31.317  0.00  0.00    +0.000 N 
ENDROOT
BRANCH   1  12
ATOM     12  S   UNL     1     -46.332  -6.722 -33.204  0.00  0.00    +0.000 S 
BRANCH  12  13
ATOM     13  C   UNL     1     -44.632  -7.284 -32.898  0.00  0.00    +0.000 C 
BRANCH  13  15
ATOM     14  N   UNL     1     -45.881  -8.931 -31.461  0.00  0.00    +0.000 N 
ATOM     15  C   UNL     1     -44.631  -8.386 -31.900  0.00  0.00    +0.000 C 
ATOM     16  O   UNL     1     -43.534  -8.830 -31.466  0.00  0.00    +0.000 OA
ATOM     17  H   UNL     1     -46.694  -8.535 -31.849  0.00  0.00    +0.000 HD
BRANCH  14  22
ATOM     18  C   UNL     1     -46.672 -13.072 -27.583  0.00  0.00    +0.000 C 
ATOM     19  C   UNL     1     -46.462 -12.014 -28.609  0.00  0.00    +0.000 A 
ATOM     20  C   UNL     1     -46.573 -10.669 -28.241  0.00  0.00    +0.000 A 
ATOM     21  C   UNL     1     -46.380  -9.664 -29.192  0.00  0.00    +0.000 A 
ATOM     22  C   UNL     1     -46.073  -9.991 -30.516  0.00  0.00    +0.000 A 
ATOM     23  C   UNL     1     -45.964 -11.341 -30.882  0.00  0.00    +0.000 A 
ATOM     24  C   UNL     1     -46.158 -12.350 -29.935  0.00  0.00    +0.000 A 
ATOM     25  F   UNL     1     -46.047 -13.649 -30.311  0.00  0.00    +0.000 F 
ENDBRANCH  14  22
ENDBRANCH  13  15
ENDBRANCH  12  13
ENDBRANCH   1  12
BRANCH  11  26
ATOM     26  C   UNL     1     -47.087  -5.588 -30.443  0.00  0.00    +0.000 C 
BRANCH  26  27
ATOM     27  C   UNL     1     -46.312  -5.966 -29.218  0.00  0.00    +0.000 A 
ATOM     28  C   UNL     1     -44.928  -6.215 -29.342  0.00  0.00    +0.000 A 
ATOM     29  C   UNL     1     -44.166  -6.604 -28.225  0.00  0.00    +0.000 A 
ATOM     30  C   UNL     1     -44.831  -6.737 -27.009  0.00  0.00    +0.000 A 
ATOM     31  O   UNL     1     -44.312  -7.095 -25.782  0.00  0.00    +0.000 OA
ATOM     32  C   UNL     1     -45.385  -7.098 -24.830  0.00  0.00    +0.000 C 
ATOM     33  O   UNL     1     -46.548  -6.723 -25.579  0.00  0.00    +0.000 OA
ATOM     34  C   UNL     1     -46.164  -6.513 -26.889  0.00  0.00    +0.000 A 
ATOM     35  C   UNL     1     -46.952  -6.134 -27.972  0.00  0.00    +0.000 A 
ENDBRANCH  26  27
ENDBRANCH  11  26
TORSDOF 6
ENDMDL
MODEL 3
REMARK VINA RESULT:      -7.4      0.955      1.366
REMARK  Name = ZINC000067291103 ZINC67291103 MCULE-7927403924 MolPort-019-718-401 PubChem-51366855
REMARK  6 active torsions:
REMARK  status: ('A' for Active; 'I' for Inactive)
REMARK    1  A    between atoms: C_1  and  S_12
REMARK    2  A    between atoms: N_11  and  C_26
REMARK    3  A    between atoms: S_12  and  C_13
REMARK    4  A    between atoms: C_13  and  C_15
REMARK    5  A    between atoms: N_14  and  C_22
REMARK    6  A    between atoms: C_26  and  C_27
REMARK                            x       y       z     vdW  Elec       q    Type
REMARK                         _______ _______ _______ _____ _____    ______ ____
ROOT
ATOM      1  C   UNL     1     -46.560  -6.849 -29.730  0.00  0.00    +0.000 A 
ATOM      2  N   UNL     1     -46.457  -7.434 -28.507  0.00  0.00    +0.000 NA
ATOM      3  C   UNL     1     -46.607  -6.717 -27.369  0.00  0.00    +0.000 A 
ATOM      4  C   UNL     1     -46.499  -7.347 -26.126  0.00  0.00    +0.000 A 
ATOM      5  C   UNL     1     -46.658  -6.605 -24.951  0.00  0.00    +0.000 A 
ATOM      6  C   UNL     1     -46.926  -5.234 -25.017  0.00  0.00    +0.000 A 
ATOM      7  C   UNL     1     -47.036  -4.601 -26.259  0.00  0.00    +0.000 A 
ATOM      8  C   UNL     1     -46.877  -5.338 -27.441  0.00  0.00    +0.000 A 
ATOM      9  C   UNL     1     -46.973  -4.744 -28.706  0.00  0.00    +0.000 A 
ATOM     10  O   UNL     1     -47.207  -3.506 -28.801  0.00  0.00    +0.000 OA
ATOM     11  N   UNL     1     -46.810  -5.504 -29.834  0.00  0.00    +0.000 N 
ENDROOT
BRANCH   1  12
ATOM     12  S   UNL     1     -46.371  -7.891 -31.183  0.00  0.00    +0.000 S 
BRANCH  12  13
ATOM     13  C   UNL     1     -47.393  -9.204 -30.453  0.00  0.00    +0.000 C 
BRANCH  13  15
ATOM     14  N   UNL     1     -47.132 -11.404 -29.258  0.00  0.00    +0.000 N 
ATOM     15  C   UNL     1     -46.525 -10.256 -29.862  0.00  0.00    +0.000 C 
ATOM     16  O   UNL     1     -45.272 -10.128 -29.912  0.00  0.00    +0.000 OA
ATOM     17  H   UNL     1     -48.116 -11.434 -29.261  0.00  0.00    +0.000 HD
BRANCH  14  22
ATOM     18  C   UNL     1     -44.383 -15.864 -26.942  0.00  0.00    +0.000 C 
ATOM     19  C   UNL     1     -45.109 -14.700 -27.521  0.00  0.00    +0.000 A 
ATOM     20  C   UNL     1     -44.914 -14.370 -28.866  0.00  0.00    +0.000 A 
ATOM     21  C   UNL     1     -45.586 -13.279 -29.424  0.00  0.00    +0.000 A 
ATOM     22  C   UNL     1     -46.460 -12.512 -28.647  0.00  0.00    +0.000 A 
ATOM     23  C   UNL     1     -46.652 -12.846 -27.298  0.00  0.00    +0.000 A 
ATOM     24  C   UNL     1     -45.980 -13.934 -26.735  0.00  0.00    +0.000 A 
ATOM     25  F   UNL     1     -46.181 -14.239 -25.428  0.00  0.00    +0.000 F 
ENDBRANCH  14  22
ENDBRANCH  13  15
ENDBRANCH  12  13
ENDBRANCH   1  12
BRANCH  11  26
ATOM     26  C   UNL     1     -46.878  -4.854 -31.147  0.00  0.00    +0.000 C 
BRANCH  26  27
ATOM     27  C   UNL     1     -45.636  -4.076 -31.454  0.00  0.00    +0.000 A 
ATOM     28  C   UNL     1     -44.392  -4.744 -31.423  0.00  0.00    +0.000 A 
ATOM     29  C   UNL     1     -43.196  -4.046 -31.674  0.00  0.00    +0.000 A 
ATOM     30  C   UNL     1     -43.293  -2.684 -31.945  0.00  0.00    +0.000 A 
ATOM     31  O   UNL     1     -42.279  -1.792 -32.227  0.00  0.00    +0.000 OA
ATOM     32  C   UNL     1     -42.868  -0.501 -32.433  0.00  0.00    +0.000 C 
ATOM     33  O   UNL     1     -44.277  -0.701 -32.253  0.00  0.00    +0.000 OA
ATOM     34  C   UNL     1     -44.484  -2.035 -31.962  0.00  0.00    +0.000 A 
ATOM     35  C   UNL     1     -45.687  -2.690 -31.711  0.00  0.00    +0.000 A 
ENDBRANCH  26  27
ENDBRANCH  11  26
TORSDOF 6
ENDMDL
