MODEL 1
REMARK VINA RESULT:      -6.3      0.000      0.000
REMARK  Name = ZINC000005372514 ZINC05372514 PubChem-92261926
REMARK  9 active torsions:
REMARK  status: ('A' for Active; 'I' for Inactive)
REMARK    1  A    between atoms: N_14  and  C_20
REMARK    2  A    between atoms: C_20  and  C_21
REMARK    3  A    between atoms: C_21  and  O_22
REMARK    4  A    between atoms: C_21  and  C_24
REMARK    5  A    between atoms: C_24  and  O_25
REMARK    6  A    between atoms: C_24  and  C_27
REMARK    7  A    between atoms: C_27  and  O_28
REMARK    8  A    between atoms: C_27  and  C_30
REMARK    9  A    between atoms: C_30  and  O_31
REMARK                            x       y       z     vdW  Elec       q    Type
REMARK                         _______ _______ _______ _____ _____    ______ ____
ROOT
ATOM      1  C   UNL     1     -46.820 -12.634 -19.334  0.00  0.00    +0.000 C 
ATOM      2  C   UNL     1     -46.470 -13.956 -19.928  0.00  0.00    +0.000 A 
ATOM      3  C   UNL     1     -46.295 -14.045 -21.311  0.00  0.00    +0.000 A 
ATOM      4  C   UNL     1     -45.966 -15.264 -21.909  0.00  0.00    +0.000 A 
ATOM      5  C   UNL     1     -45.805 -15.318 -23.289  0.00  0.00    +0.000 A 
ATOM      6  C   UNL     1     -45.482 -16.524 -23.901  0.00  0.00    +0.000 A 
ATOM      7  C   UNL     1     -45.315 -16.643 -25.285  0.00  0.00    +0.000 A 
ATOM      8  O   UNL     1     -45.446 -15.642 -26.040  0.00  0.00    +0.000 OA
ATOM      9  N   UNL     1     -45.007 -17.852 -25.827  0.00  0.00    +0.000 N 
ATOM     10  C   UNL     1     -44.851 -18.978 -25.077  0.00  0.00    +0.000 A 
ATOM     11  O   UNL     1     -44.568 -20.068 -25.637  0.00  0.00    +0.000 OA
ATOM     12  C   UNL     1     -45.002 -18.936 -23.688  0.00  0.00    +0.000 A 
ATOM     13  C   UNL     1     -45.314 -17.728 -23.055  0.00  0.00    +0.000 A 
ATOM     14  N   UNL     1     -45.471 -17.633 -21.695  0.00  0.00    +0.000 N 
ATOM     15  C   UNL     1     -45.799 -16.429 -21.117  0.00  0.00    +0.000 A 
ATOM     16  C   UNL     1     -45.984 -16.322 -19.726  0.00  0.00    +0.000 A 
ATOM     17  C   UNL     1     -46.314 -15.103 -19.131  0.00  0.00    +0.000 A 
ATOM     18  C   UNL     1     -46.493 -15.055 -17.651  0.00  0.00    +0.000 C 
ATOM     19  H   UNL     1     -44.893 -17.917 -26.803  0.00  0.00    +0.000 HD
ENDROOT
BRANCH  14  20
ATOM     20  C   UNL     1     -45.280 -18.825 -20.858  0.00  0.00    +0.000 C 
BRANCH  20  21
ATOM     21  C   UNL     1     -43.810 -18.984 -20.467  0.00  0.00    +0.000 C 
BRANCH  21  22
ATOM     22  O   UNL     1     -43.263 -20.093 -21.113  0.00  0.00    +0.000 OA
ATOM     23  H   UNL     1     -42.524 -20.441 -20.589  0.00  0.00    +0.000 HD
ENDBRANCH  21  22
BRANCH  21  24
ATOM     24  C   UNL     1     -43.625 -19.131 -18.954  0.00  0.00    +0.000 C 
BRANCH  24  25
ATOM     25  O   UNL     1     -43.130 -17.955 -18.385  0.00  0.00    +0.000 OA
ATOM     26  H   UNL     1     -43.747 -17.227 -18.559  0.00  0.00    +0.000 HD
ENDBRANCH  24  25
BRANCH  24  27
ATOM     27  C   UNL     1     -42.764 -20.329 -18.539  0.00  0.00    +0.000 C 
BRANCH  27  28
ATOM     28  O   UNL     1     -43.537 -21.449 -18.227  0.00  0.00    +0.000 OA
ATOM     29  H   UNL     1     -43.028 -22.043 -17.652  0.00  0.00    +0.000 HD
ENDBRANCH  27  28
BRANCH  27  30
ATOM     30  C   UNL     1     -41.801 -19.994 -17.405  0.00  0.00    +0.000 C 
BRANCH  30  31
ATOM     31  O   UNL     1     -42.494 -19.642 -16.245  0.00  0.00    +0.000 OA
ATOM     32  H   UNL     1     -42.050 -18.894 -15.817  0.00  0.00    +0.000 HD
ENDBRANCH  30  31
ENDBRANCH  27  30
ENDBRANCH  24  27
ENDBRANCH  21  24
ENDBRANCH  20  21
ENDBRANCH  14  20
TORSDOF 9
ENDMDL
MODEL 2
REMARK VINA RESULT:      -5.9      2.569      6.226
REMARK  Name = ZINC000005372514 ZINC05372514 PubChem-92261926
REMARK  9 active torsions:
REMARK  status: ('A' for Active; 'I' for Inactive)
REMARK    1  A    between atoms: N_14  and  C_20
REMARK    2  A    between atoms: C_20  and  C_21
REMARK    3  A    between atoms: C_21  and  O_22
REMARK    4  A    between atoms: C_21  and  C_24
REMARK    5  A    between atoms: C_24  and  O_25
REMARK    6  A    between atoms: C_24  and  C_27
REMARK    7  A    between atoms: C_27  and  O_28
REMARK    8  A    between atoms: C_27  and  C_30
REMARK    9  A    between atoms: C_30  and  O_31
REMARK                            x       y       z     vdW  Elec       q    Type
REMARK                         _______ _______ _______ _____ _____    ______ ____
ROOT
ATOM      1  C   UNL     1     -46.336 -15.092 -17.945  0.00  0.00    +0.000 C 
ATOM      2  C   UNL     1     -46.202 -15.347 -19.408  0.00  0.00    +0.000 A 
ATOM      3  C   UNL     1     -45.593 -16.530 -19.830  0.00  0.00    +0.000 A 
ATOM      4  C   UNL     1     -45.448 -16.809 -21.191  0.00  0.00    +0.000 A 
ATOM      5  C   UNL     1     -44.831 -17.994 -21.576  0.00  0.00    +0.000 A 
ATOM      6  C   UNL     1     -44.673 -18.285 -22.927  0.00  0.00    +0.000 A 
ATOM      7  C   UNL     1     -44.055 -19.457 -23.376  0.00  0.00    +0.000 A 
ATOM      8  O   UNL     1     -43.616 -20.310 -22.557  0.00  0.00    +0.000 OA
ATOM      9  N   UNL     1     -43.922 -19.682 -24.711  0.00  0.00    +0.000 N 
ATOM     10  C   UNL     1     -44.369 -18.807 -25.653  0.00  0.00    +0.000 A 
ATOM     11  O   UNL     1     -44.216 -19.071 -26.873  0.00  0.00    +0.000 OA
ATOM     12  C   UNL     1     -44.998 -17.617 -25.280  0.00  0.00    +0.000 A 
ATOM     13  C   UNL     1     -45.177 -17.314 -23.925  0.00  0.00    +0.000 A 
ATOM     14  N   UNL     1     -45.789 -16.160 -23.507  0.00  0.00    +0.000 N 
ATOM     15  C   UNL     1     -45.923 -15.893 -22.164  0.00  0.00    +0.000 A 
ATOM     16  C   UNL     1     -46.530 -14.704 -21.721  0.00  0.00    +0.000 A 
ATOM     17  C   UNL     1     -46.674 -14.427 -20.361  0.00  0.00    +0.000 A 
ATOM     18  C   UNL     1     -47.329 -13.151 -19.955  0.00  0.00    +0.000 C 
ATOM     19  H   UNL     1     -43.485 -20.512 -25.008  0.00  0.00    +0.000 HD
ENDROOT
BRANCH  14  20
ATOM     20  C   UNL     1     -46.307 -15.212 -24.502  0.00  0.00    +0.000 C 
BRANCH  20  21
ATOM     21  C   UNL     1     -45.393 -13.990 -24.614  0.00  0.00    +0.000 C 
BRANCH  21  22
ATOM     22  O   UNL     1     -46.139 -12.821 -24.466  0.00  0.00    +0.000 OA
ATOM     23  H   UNL     1     -46.885 -12.987 -23.869  0.00  0.00    +0.000 HD
ENDBRANCH  21  22
BRANCH  21  24
ATOM     24  C   UNL     1     -44.639 -13.950 -25.948  0.00  0.00    +0.000 C 
BRANCH  24  25
ATOM     25  O   UNL     1     -44.237 -12.651 -26.265  0.00  0.00    +0.000 OA
ATOM     26  H   UNL     1     -44.114 -12.576 -27.224  0.00  0.00    +0.000 HD
ENDBRANCH  24  25
BRANCH  24  27
ATOM     27  C   UNL     1     -45.403 -14.574 -27.120  0.00  0.00    +0.000 C 
BRANCH  27  28
ATOM     28  O   UNL     1     -44.587 -15.394 -27.903  0.00  0.00    +0.000 OA
ATOM     29  H   UNL     1     -45.106 -16.142 -28.239  0.00  0.00    +0.000 HD
ENDBRANCH  27  28
BRANCH  27  30
ATOM     30  C   UNL     1     -46.116 -13.533 -27.976  0.00  0.00    +0.000 C 
BRANCH  30  31
ATOM     31  O   UNL     1     -47.169 -12.942 -27.274  0.00  0.00    +0.000 OA
ATOM     32  H   UNL     1     -46.813 -12.341 -26.602  0.00  0.00    +0.000 HD
ENDBRANCH  30  31
ENDBRANCH  27  30
ENDBRANCH  24  27
ENDBRANCH  21  24
ENDBRANCH  20  21
ENDBRANCH  14  20
TORSDOF 9
ENDMDL
MODEL 3
REMARK VINA RESULT:      -5.7      2.767      4.284
REMARK  Name = ZINC000005372514 ZINC05372514 PubChem-92261926
REMARK  9 active torsions:
REMARK  status: ('A' for Active; 'I' for Inactive)
REMARK    1  A    between atoms: N_14  and  C_20
REMARK    2  A    between atoms: C_20  and  C_21
REMARK    3  A    between atoms: C_21  and  O_22
REMARK    4  A    between atoms: C_21  and  C_24
REMARK    5  A    between atoms: C_24  and  O_25
REMARK    6  A    between atoms: C_24  and  C_27
REMARK    7  A    between atoms: C_27  and  O_28
REMARK    8  A    between atoms: C_27  and  C_30
REMARK    9  A    between atoms: C_30  and  O_31
REMARK                            x       y       z     vdW  Elec       q    Type
REMARK                         _______ _______ _______ _____ _____    ______ ____
ROOT
ATOM      1  C   UNL     1     -46.349 -16.557 -18.749  0.00  0.00    +0.000 C 
ATOM      2  C   UNL     1     -45.997 -16.665 -20.194  0.00  0.00    +0.000 A 
ATOM      3  C   UNL     1     -46.119 -15.532 -21.000  0.00  0.00    +0.000 A 
ATOM      4  C   UNL     1     -45.799 -15.588 -22.359  0.00  0.00    +0.000 A 
ATOM      5  C   UNL     1     -45.939 -14.442 -23.134  0.00  0.00    +0.000 A 
ATOM      6  C   UNL     1     -45.630 -14.483 -24.489  0.00  0.00    +0.000 A 
ATOM      7  C   UNL     1     -45.757 -13.365 -25.322  0.00  0.00    +0.000 A 
ATOM      8  O   UNL     1     -46.156 -12.260 -24.864  0.00  0.00    +0.000 OA
ATOM      9  N   UNL     1     -45.447 -13.468 -26.642  0.00  0.00    +0.000 N 
ATOM     10  C   UNL     1     -45.011 -14.627 -27.209  0.00  0.00    +0.000 A 
ATOM     11  O   UNL     1     -44.742 -14.659 -28.437  0.00  0.00    +0.000 OA
ATOM     12  C   UNL     1     -44.859 -15.783 -26.440  0.00  0.00    +0.000 A 
ATOM     13  C   UNL     1     -45.153 -15.757 -25.072  0.00  0.00    +0.000 A 
ATOM     14  N   UNL     1     -45.018 -16.864 -24.273  0.00  0.00    +0.000 N 
ATOM     15  C   UNL     1     -45.340 -16.799 -22.937  0.00  0.00    +0.000 A 
ATOM     16  C   UNL     1     -45.227 -17.932 -22.111  0.00  0.00    +0.000 A 
ATOM     17  C   UNL     1     -45.548 -17.874 -20.753  0.00  0.00    +0.000 A 
ATOM     18  C   UNL     1     -45.404 -19.109 -19.930  0.00  0.00    +0.000 C 
ATOM     19  H   UNL     1     -45.542 -12.671 -27.213  0.00  0.00    +0.000 HD
ENDROOT
BRANCH  14  20
ATOM     20  C   UNL     1     -44.523 -18.120 -24.851  0.00  0.00    +0.000 C 
BRANCH  20  21
ATOM     21  C   UNL     1     -43.078 -18.382 -24.422  0.00  0.00    +0.000 C 
BRANCH  21  22
ATOM     22  O   UNL     1     -42.198 -17.781 -25.321  0.00  0.00    +0.000 OA
ATOM     23  H   UNL     1     -42.594 -16.966 -25.667  0.00  0.00    +0.000 HD
ENDBRANCH  21  22
BRANCH  21  24
ATOM     24  C   UNL     1     -42.764 -19.879 -24.323  0.00  0.00    +0.000 C 
BRANCH  24  25
ATOM     25  O   UNL     1     -43.920 -20.626 -24.085  0.00  0.00    +0.000 OA
ATOM     26  H   UNL     1     -44.079 -21.224 -24.832  0.00  0.00    +0.000 HD
ENDBRANCH  24  25
BRANCH  24  27
ATOM     27  C   UNL     1     -41.682 -20.228 -23.297  0.00  0.00    +0.000 C 
BRANCH  27  28
ATOM     28  O   UNL     1     -40.556 -19.410 -23.420  0.00  0.00    +0.000 OA
ATOM     29  H   UNL     1     -40.078 -19.388 -22.576  0.00  0.00    +0.000 HD
ENDBRANCH  27  28
BRANCH  27  30
ATOM     30  C   UNL     1     -41.295 -21.703 -23.332  0.00  0.00    +0.000 C 
BRANCH  30  31
ATOM     31  O   UNL     1     -42.246 -22.487 -22.674  0.00  0.00    +0.000 OA
ATOM     32  H   UNL     1     -41.923 -22.711 -21.788  0.00  0.00    +0.000 HD
ENDBRANCH  30  31
ENDBRANCH  27  30
ENDBRANCH  24  27
ENDBRANCH  21  24
ENDBRANCH  20  21
ENDBRANCH  14  20
TORSDOF 9
ENDMDL
