MODEL 1
REMARK VINA RESULT:      -6.8      0.000      0.000
REMARK  Name = ZINC000100138715
REMARK  4 active torsions:
REMARK  status: ('A' for Active; 'I' for Inactive)
REMARK    1  A    between atoms: C_1  and  C_13
REMARK    2  A    between atoms: C_6  and  C_21
REMARK    3  A    between atoms: C_16  and  O_17
REMARK    4  A    between atoms: C_21  and  C_22
REMARK                            x       y       z     vdW  Elec       q    Type
REMARK                         _______ _______ _______ _____ _____    ______ ____
ROOT
ATOM      1  C   UNL     1     -46.582  -3.001 -32.468  0.00  0.00    +0.000 C 
ATOM      2  C   UNL     1     -47.065  -3.280 -33.882  0.00  0.00    +0.000 C 
ATOM      3  C   UNL     1     -47.142  -4.795 -34.026  0.00  0.00    +0.000 C 
ATOM      4  C   UNL     1     -47.055  -5.373 -32.626  0.00  0.00    +0.000 C 
ATOM      5  N   UNL     1     -46.705  -4.263 -31.763  0.00  0.00    +0.000 N 
ATOM      6  C   UNL     1     -46.458  -4.409 -30.358  0.00  0.00    +0.000 C 
ATOM      7  O   UNL     1     -46.421  -3.392 -29.614  0.00  0.00    +0.000 OA
ENDROOT
BRANCH   1  13
ATOM      8  C   UNL     1     -40.048   0.264 -32.158  0.00  0.00    +0.000 C 
ATOM      9  C   UNL     1     -41.088  -0.783 -32.373  0.00  0.00    +0.000 A 
ATOM     10  N   UNL     1     -42.397  -0.466 -32.146  0.00  0.00    +0.000 NA
ATOM     11  C   UNL     1     -43.348  -1.411 -32.340  0.00  0.00    +0.000 A 
ATOM     12  C   UNL     1     -44.709  -1.283 -32.157  0.00  0.00    +0.000 A 
ATOM     13  C   UNL     1     -45.150  -2.565 -32.498  0.00  0.00    +0.000 A 
ATOM     14  N   UNL     1     -44.124  -3.376 -32.853  0.00  0.00    +0.000 NA
ATOM     15  N   UNL     1     -43.033  -2.644 -32.746  0.00  0.00    +0.000 N 
ATOM     16  C   UNL     1     -41.759  -3.032 -32.988  0.00  0.00    +0.000 A 
ATOM     17  C   UNL     1     -40.734  -2.089 -32.803  0.00  0.00    +0.000 A 
ATOM     18  C   UNL     1     -39.310  -2.467 -33.052  0.00  0.00    +0.000 C 
BRANCH  16  19
ATOM     19  O   UNL     1     -41.482  -4.330 -33.409  0.00  0.00    +0.000 OA
ATOM     20  H   UNL     1     -41.548  -4.552 -34.316  0.00  0.00    +0.000 HD
ENDBRANCH  16  19
ENDBRANCH   1  13
BRANCH   6  21
ATOM     21  C   UNL     1     -46.146  -5.748 -29.777  0.00  0.00    +0.000 C 
BRANCH  21  22
ATOM     22  C   UNL     1     -44.672  -5.999 -29.867  0.00  0.00    +0.000 A 
ATOM     23  N   UNL     1     -44.040  -5.801 -31.056  0.00  0.00    +0.000 NA
ATOM     24  N   UNL     1     -42.722  -5.957 -31.188  0.00  0.00    +0.000 N 
ATOM     25  C   UNL     1     -41.937  -6.316 -30.139  0.00  0.00    +0.000 A 
ATOM     26  O   UNL     1     -40.693  -6.434 -30.306  0.00  0.00    +0.000 OA
ATOM     27  C   UNL     1     -42.522  -6.538 -28.886  0.00  0.00    +0.000 A 
ATOM     28  C   UNL     1     -41.748  -6.904 -27.775  0.00  0.00    +0.000 A 
ATOM     29  C   UNL     1     -42.355  -7.110 -26.533  0.00  0.00    +0.000 A 
ATOM     30  C   UNL     1     -43.734  -6.949 -26.391  0.00  0.00    +0.000 A 
ATOM     31  C   UNL     1     -44.513  -6.581 -27.491  0.00  0.00    +0.000 A 
ATOM     32  C   UNL     1     -43.917  -6.374 -28.744  0.00  0.00    +0.000 A 
ATOM     33  H   UNL     1     -42.308  -5.808 -32.069  0.00  0.00    +0.000 HD
ENDBRANCH  21  22
ENDBRANCH   6  21
TORSDOF 4
ENDMDL
MODEL 2
REMARK VINA RESULT:      -6.8     13.710     16.273
REMARK  Name = ZINC000100138715
REMARK  4 active torsions:
REMARK  status: ('A' for Active; 'I' for Inactive)
REMARK    1  A    between atoms: C_1  and  C_13
REMARK    2  A    between atoms: C_6  and  C_21
REMARK    3  A    between atoms: C_16  and  O_17
REMARK    4  A    between atoms: C_21  and  C_22
REMARK                            x       y       z     vdW  Elec       q    Type
REMARK                         _______ _______ _______ _____ _____    ______ ____
ROOT
ATOM      1  C   UNL     1     -44.835 -16.842 -26.071  0.00  0.00    +0.000 C 
ATOM      2  C   UNL     1     -43.773 -16.082 -26.847  0.00  0.00    +0.000 C 
ATOM      3  C   UNL     1     -42.502 -16.922 -26.785  0.00  0.00    +0.000 C 
ATOM      4  C   UNL     1     -42.910 -18.298 -26.294  0.00  0.00    +0.000 C 
ATOM      5  N   UNL     1     -44.291 -18.173 -25.874  0.00  0.00    +0.000 N 
ATOM      6  C   UNL     1     -45.031 -19.247 -25.277  0.00  0.00    +0.000 C 
ATOM      7  O   UNL     1     -46.285 -19.170 -25.177  0.00  0.00    +0.000 OA
ENDROOT
BRANCH   1  13
ATOM      8  C   UNL     1     -47.140 -13.300 -20.104  0.00  0.00    +0.000 C 
ATOM      9  C   UNL     1     -46.270 -14.092 -21.022  0.00  0.00    +0.000 A 
ATOM     10  N   UNL     1     -46.723 -14.371 -22.279  0.00  0.00    +0.000 NA
ATOM     11  C   UNL     1     -45.939 -15.088 -23.119  0.00  0.00    +0.000 A 
ATOM     12  C   UNL     1     -46.225 -15.472 -24.413  0.00  0.00    +0.000 A 
ATOM     13  C   UNL     1     -45.067 -16.179 -24.748  0.00  0.00    +0.000 A 
ATOM     14  N   UNL     1     -44.175 -16.203 -23.728  0.00  0.00    +0.000 NA
ATOM     15  N   UNL     1     -44.735 -15.528 -22.745  0.00  0.00    +0.000 N 
ATOM     16  C   UNL     1     -44.220 -15.294 -21.515  0.00  0.00    +0.000 A 
ATOM     17  C   UNL     1     -44.994 -14.552 -20.605  0.00  0.00    +0.000 A 
ATOM     18  C   UNL     1     -44.474 -14.269 -19.232  0.00  0.00    +0.000 C 
BRANCH  16  19
ATOM     19  O   UNL     1     -42.960 -15.775 -21.170  0.00  0.00    +0.000 OA
ATOM     20  H   UNL     1     -42.307 -15.892 -21.831  0.00  0.00    +0.000 HD
ENDBRANCH  16  19
ENDBRANCH   1  13
BRANCH   6  21
ATOM     21  C   UNL     1     -44.322 -20.418 -24.683  0.00  0.00    +0.000 C 
BRANCH  21  22
ATOM     22  C   UNL     1     -43.744 -20.029 -23.357  0.00  0.00    +0.000 A 
ATOM     23  N   UNL     1     -44.427 -19.155 -22.570  0.00  0.00    +0.000 NA
ATOM     24  N   UNL     1     -43.991 -18.809 -21.357  0.00  0.00    +0.000 N 
ATOM     25  C   UNL     1     -42.842 -19.317 -20.840  0.00  0.00    +0.000 A 
ATOM     26  O   UNL     1     -42.477 -18.976 -19.683  0.00  0.00    +0.000 OA
ATOM     27  C   UNL     1     -42.087 -20.221 -21.597  0.00  0.00    +0.000 A 
ATOM     28  C   UNL     1     -40.897 -20.774 -21.100  0.00  0.00    +0.000 A 
ATOM     29  C   UNL     1     -40.168 -21.682 -21.872  0.00  0.00    +0.000 A 
ATOM     30  C   UNL     1     -40.621 -22.046 -23.142  0.00  0.00    +0.000 A 
ATOM     31  C   UNL     1     -41.806 -21.502 -23.645  0.00  0.00    +0.000 A 
ATOM     32  C   UNL     1     -42.547 -20.588 -22.881  0.00  0.00    +0.000 A 
ATOM     33  H   UNL     1     -44.515 -18.169 -20.825  0.00  0.00    +0.000 HD
ENDBRANCH  21  22
ENDBRANCH   6  21
TORSDOF 4
ENDMDL
MODEL 3
REMARK VINA RESULT:      -6.8     12.079     15.697
REMARK  Name = ZINC000100138715
REMARK  4 active torsions:
REMARK  status: ('A' for Active; 'I' for Inactive)
REMARK    1  A    between atoms: C_1  and  C_13
REMARK    2  A    between atoms: C_6  and  C_21
REMARK    3  A    between atoms: C_16  and  O_17
REMARK    4  A    between atoms: C_21  and  C_22
REMARK                            x       y       z     vdW  Elec       q    Type
REMARK                         _______ _______ _______ _____ _____    ______ ____
ROOT
ATOM      1  C   UNL     1     -45.142 -14.716 -20.201  0.00  0.00    +0.000 C 
ATOM      2  C   UNL     1     -46.309 -14.008 -19.536  0.00  0.00    +0.000 C 
ATOM      3  C   UNL     1     -47.256 -15.096 -19.041  0.00  0.00    +0.000 C 
ATOM      4  C   UNL     1     -46.488 -16.403 -19.098  0.00  0.00    +0.000 C 
ATOM      5  N   UNL     1     -45.260 -16.109 -19.809  0.00  0.00    +0.000 N 
ATOM      6  C   UNL     1     -44.283 -17.106 -20.135  0.00  0.00    +0.000 C 
ATOM      7  O   UNL     1     -43.130 -16.761 -20.511  0.00  0.00    +0.000 OA
ENDROOT
BRANCH   1  13
ATOM      8  C   UNL     1     -46.550 -13.151 -27.203  0.00  0.00    +0.000 C 
ATOM      9  C   UNL     1     -45.945 -13.792 -25.999  0.00  0.00    +0.000 A 
ATOM     10  N   UNL     1     -46.370 -13.399 -24.762  0.00  0.00    +0.000 NA
ATOM     11  C   UNL     1     -45.828 -13.977 -23.664  0.00  0.00    +0.000 A 
ATOM     12  C   UNL     1     -46.120 -13.708 -22.343  0.00  0.00    +0.000 A 
ATOM     13  C   UNL     1     -45.253 -14.589 -21.689  0.00  0.00    +0.000 A 
ATOM     14  N   UNL     1     -44.514 -15.314 -22.563  0.00  0.00    +0.000 NA
ATOM     15  N   UNL     1     -44.885 -14.917 -23.764  0.00  0.00    +0.000 N 
ATOM     16  C   UNL     1     -44.412 -15.355 -24.954  0.00  0.00    +0.000 A 
ATOM     17  C   UNL     1     -44.944 -14.789 -26.126  0.00  0.00    +0.000 A 
ATOM     18  C   UNL     1     -44.452 -15.234 -27.466  0.00  0.00    +0.000 C 
BRANCH  16  19
ATOM     19  O   UNL     1     -43.428 -16.339 -25.007  0.00  0.00    +0.000 OA
ATOM     20  H   UNL     1     -42.839 -16.373 -25.735  0.00  0.00    +0.000 HD
ENDBRANCH  16  19
ENDBRANCH   1  13
BRANCH   6  21
ATOM     21  C   UNL     1     -44.645 -18.554 -20.128  0.00  0.00    +0.000 C 
BRANCH  21  22
ATOM     22  C   UNL     1     -43.888 -19.261 -21.210  0.00  0.00    +0.000 A 
ATOM     23  N   UNL     1     -42.754 -19.939 -20.887  0.00  0.00    +0.000 NA
ATOM     24  N   UNL     1     -42.064 -20.632 -21.795  0.00  0.00    +0.000 N 
ATOM     25  C   UNL     1     -42.461 -20.702 -23.092  0.00  0.00    +0.000 A 
ATOM     26  O   UNL     1     -41.788 -21.382 -23.913  0.00  0.00    +0.000 OA
ATOM     27  C   UNL     1     -43.619 -20.025 -23.495  0.00  0.00    +0.000 A 
ATOM     28  C   UNL     1     -44.068 -20.074 -24.823  0.00  0.00    +0.000 A 
ATOM     29  C   UNL     1     -45.233 -19.398 -25.197  0.00  0.00    +0.000 A 
ATOM     30  C   UNL     1     -45.957 -18.672 -24.249  0.00  0.00    +0.000 A 
ATOM     31  C   UNL     1     -45.519 -18.619 -22.924  0.00  0.00    +0.000 A 
ATOM     32  C   UNL     1     -44.350 -19.291 -22.536  0.00  0.00    +0.000 A 
ATOM     33  H   UNL     1     -41.246 -21.104 -21.517  0.00  0.00    +0.000 HD
ENDBRANCH  21  22
ENDBRANCH   6  21
TORSDOF 4
ENDMDL
