MODEL 1
REMARK VINA RESULT:      -7.4      0.000      0.000
REMARK  Name = ZINC000014495283
REMARK  4 active torsions:
REMARK  status: ('A' for Active; 'I' for Inactive)
REMARK    1  A    between atoms: C_1  and  C_14
REMARK    2  A    between atoms: C_9  and  S_25
REMARK    3  A    between atoms: N_13  and  C_24
REMARK    4  A    between atoms: S_25  and  N_28
REMARK                            x       y       z     vdW  Elec       q    Type
REMARK                         _______ _______ _______ _____ _____    ______ ____
ROOT
ATOM      1  C   UNL     1     -45.317  -7.155 -25.976  0.00  0.00    +0.000 A 
ATOM      2  C   UNL     1     -44.508  -7.377 -24.854  0.00  0.00    +0.000 A 
ATOM      3  C   UNL     1     -43.128  -7.204 -24.935  0.00  0.00    +0.000 A 
ATOM      4  O   UNL     1     -42.409  -7.401 -23.922  0.00  0.00    +0.000 OA
ATOM      5  N   UNL     1     -42.555  -6.824 -26.107  0.00  0.00    +0.000 N 
ATOM      6  C   UNL     1     -43.297  -6.601 -27.223  0.00  0.00    +0.000 A 
ATOM      7  C   UNL     1     -42.666  -6.205 -28.406  0.00  0.00    +0.000 A 
ATOM      8  C   UNL     1     -43.421  -5.963 -29.556  0.00  0.00    +0.000 A 
ATOM      9  C   UNL     1     -44.811  -6.113 -29.529  0.00  0.00    +0.000 A 
ATOM     10  C   UNL     1     -45.448  -6.507 -28.349  0.00  0.00    +0.000 A 
ATOM     11  C   UNL     1     -44.704  -6.763 -27.187  0.00  0.00    +0.000 A 
ATOM     12  H   UNL     1     -41.579  -6.706 -26.149  0.00  0.00    +0.000 HD
ENDROOT
BRANCH   1  14
ATOM     13  N   UNL     1     -47.639  -6.410 -25.234  0.00  0.00    +0.000 N 
ATOM     14  C   UNL     1     -46.779  -7.376 -25.854  0.00  0.00    +0.000 C 
ATOM     15  O   UNL     1     -47.277  -8.467 -26.237  0.00  0.00    +0.000 OA
ATOM     16  H   UNL     1     -48.420  -6.757 -24.744  0.00  0.00    +0.000 HD
BRANCH  13  24
ATOM     17  C   UNL     1     -47.241  -5.015 -22.757  0.00  0.00    +0.000 C 
ATOM     18  C   UNL     1     -47.294  -4.276 -24.056  0.00  0.00    +0.000 A 
ATOM     19  C   UNL     1     -47.159  -2.875 -24.081  0.00  0.00    +0.000 A 
ATOM     20 CL   UNL     1     -46.922  -1.944 -22.609  0.00  0.00    +0.000 Cl
ATOM     21  C   UNL     1     -47.215  -2.190 -25.298  0.00  0.00    +0.000 A 
ATOM     22  C   UNL     1     -47.407  -2.888 -26.490  0.00  0.00    +0.000 A 
ATOM     23  C   UNL     1     -47.539  -4.276 -26.471  0.00  0.00    +0.000 A 
ATOM     24  C   UNL     1     -47.470  -4.984 -25.260  0.00  0.00    +0.000 A 
ENDBRANCH  13  24
ENDBRANCH   1  14
BRANCH   9  25
ATOM     25  S   UNL     1     -45.765  -5.806 -30.970  0.00  0.00    +0.000 S 
ATOM     26  O   UNL     1     -47.040  -5.104 -30.589  0.00  0.00    +0.000 OA
ATOM     27  O   UNL     1     -46.103  -7.120 -31.616  0.00  0.00    +0.000 OA
BRANCH  25  28
ATOM     28  N   UNL     1     -44.845  -4.827 -32.080  0.00  0.00    +0.000 NA
ATOM     29  C   UNL     1     -44.892  -3.413 -31.675  0.00  0.00    +0.000 C 
ATOM     30  C   UNL     1     -46.197  -2.738 -32.113  0.00  0.00    +0.000 C 
ATOM     31  O   UNL     1     -46.352  -2.861 -33.502  0.00  0.00    +0.000 OA
ATOM     32  C   UNL     1     -46.593  -4.221 -33.744  0.00  0.00    +0.000 C 
ATOM     33  C   UNL     1     -45.324  -5.032 -33.456  0.00  0.00    +0.000 C 
ENDBRANCH  25  28
ENDBRANCH   9  25
TORSDOF 4
ENDMDL
MODEL 2
REMARK VINA RESULT:      -7.0      4.347      7.918
REMARK  Name = ZINC000014495283
REMARK  4 active torsions:
REMARK  status: ('A' for Active; 'I' for Inactive)
REMARK    1  A    between atoms: C_1  and  C_14
REMARK    2  A    between atoms: C_9  and  S_25
REMARK    3  A    between atoms: N_13  and  C_24
REMARK    4  A    between atoms: S_25  and  N_28
REMARK                            x       y       z     vdW  Elec       q    Type
REMARK                         _______ _______ _______ _____ _____    ______ ____
ROOT
ATOM      1  C   UNL     1     -46.690  -5.026 -31.991  0.00  0.00    +0.000 A 
ATOM      2  C   UNL     1     -46.941  -4.623 -33.309  0.00  0.00    +0.000 A 
ATOM      3  C   UNL     1     -46.934  -5.557 -34.344  0.00  0.00    +0.000 A 
ATOM      4  O   UNL     1     -47.164  -5.189 -35.524  0.00  0.00    +0.000 OA
ATOM      5  N   UNL     1     -46.676  -6.866 -34.081  0.00  0.00    +0.000 N 
ATOM      6  C   UNL     1     -46.422  -7.302 -32.820  0.00  0.00    +0.000 A 
ATOM      7  C   UNL     1     -46.167  -8.658 -32.595  0.00  0.00    +0.000 A 
ATOM      8  C   UNL     1     -45.916  -9.119 -31.301  0.00  0.00    +0.000 A 
ATOM      9  C   UNL     1     -45.920  -8.227 -30.224  0.00  0.00    +0.000 A 
ATOM     10  C   UNL     1     -46.175  -6.871 -30.442  0.00  0.00    +0.000 A 
ATOM     11  C   UNL     1     -46.421  -6.389 -31.737  0.00  0.00    +0.000 A 
ATOM     12  H   UNL     1     -46.672  -7.513 -34.823  0.00  0.00    +0.000 HD
ENDROOT
BRANCH   1  14
ATOM     13  N   UNL     1     -45.524  -3.191 -30.660  0.00  0.00    +0.000 N 
ATOM     14  C   UNL     1     -46.682  -3.996 -30.923  0.00  0.00    +0.000 C 
ATOM     15  O   UNL     1     -47.687  -3.867 -30.175  0.00  0.00    +0.000 OA
ATOM     16  H   UNL     1     -45.371  -2.921 -29.725  0.00  0.00    +0.000 HD
BRANCH  13  24
ATOM     17  C   UNL     1     -43.126  -4.718 -31.054  0.00  0.00    +0.000 C 
ATOM     18  C   UNL     1     -43.374  -3.462 -31.827  0.00  0.00    +0.000 A 
ATOM     19  C   UNL     1     -42.422  -3.002 -32.757  0.00  0.00    +0.000 A 
ATOM     20 CL   UNL     1     -40.923  -3.872 -33.051  0.00  0.00    +0.000 Cl
ATOM     21  C   UNL     1     -42.657  -1.824 -33.471  0.00  0.00    +0.000 A 
ATOM     22  C   UNL     1     -43.831  -1.098 -33.265  0.00  0.00    +0.000 A 
ATOM     23  C   UNL     1     -44.777  -1.551 -32.346  0.00  0.00    +0.000 A 
ATOM     24  C   UNL     1     -44.566  -2.740 -31.631  0.00  0.00    +0.000 A 
ENDBRANCH  13  24
ENDBRANCH   1  14
BRANCH   9  25
ATOM     25  S   UNL     1     -45.608  -8.802 -28.595  0.00  0.00    +0.000 S 
ATOM     26  O   UNL     1     -45.378  -7.628 -27.683  0.00  0.00    +0.000 OA
ATOM     27  O   UNL     1     -44.374  -9.659 -28.611  0.00  0.00    +0.000 OA
BRANCH  25  28
ATOM     28  N   UNL     1     -46.966  -9.741 -28.038  0.00  0.00    +0.000 NA
ATOM     29  C   UNL     1     -47.442  -9.233 -26.741  0.00  0.00    +0.000 C 
ATOM     30  C   UNL     1     -46.578  -9.738 -25.580  0.00  0.00    +0.000 C 
ATOM     31  O   UNL     1     -46.551 -11.141 -25.584  0.00  0.00    +0.000 OA
ATOM     32  C   UNL     1     -45.816 -11.510 -26.720  0.00  0.00    +0.000 C 
ATOM     33  C   UNL     1     -46.611 -11.168 -27.985  0.00  0.00    +0.000 C 
ENDBRANCH  25  28
ENDBRANCH   9  25
TORSDOF 4
ENDMDL
MODEL 3
REMARK VINA RESULT:      -6.9     12.687     15.843
REMARK  Name = ZINC000014495283
REMARK  4 active torsions:
REMARK  status: ('A' for Active; 'I' for Inactive)
REMARK    1  A    between atoms: C_1  and  C_14
REMARK    2  A    between atoms: C_9  and  S_25
REMARK    3  A    between atoms: N_13  and  C_24
REMARK    4  A    between atoms: S_25  and  N_28
REMARK                            x       y       z     vdW  Elec       q    Type
REMARK                         _______ _______ _______ _____ _____    ______ ____
ROOT
ATOM      1  C   UNL     1     -44.473 -16.368 -22.877  0.00  0.00    +0.000 A 
ATOM      2  C   UNL     1     -45.411 -15.498 -23.448  0.00  0.00    +0.000 A 
ATOM      3  C   UNL     1     -46.186 -15.911 -24.530  0.00  0.00    +0.000 A 
ATOM      4  O   UNL     1     -47.029 -15.125 -25.035  0.00  0.00    +0.000 OA
ATOM      5  N   UNL     1     -46.032 -17.159 -25.045  0.00  0.00    +0.000 N 
ATOM      6  C   UNL     1     -45.132 -18.036 -24.528  0.00  0.00    +0.000 A 
ATOM      7  C   UNL     1     -45.011 -19.312 -25.084  0.00  0.00    +0.000 A 
ATOM      8  C   UNL     1     -44.096 -20.225 -24.553  0.00  0.00    +0.000 A 
ATOM      9  C   UNL     1     -43.300 -19.867 -23.461  0.00  0.00    +0.000 A 
ATOM     10  C   UNL     1     -43.417 -18.593 -22.899  0.00  0.00    +0.000 A 
ATOM     11  C   UNL     1     -44.324 -17.661 -23.426  0.00  0.00    +0.000 A 
ATOM     12  H   UNL     1     -46.585 -17.436 -25.810  0.00  0.00    +0.000 HD
ENDROOT
BRANCH   1  14
ATOM     13  N   UNL     1     -44.001 -16.163 -20.380  0.00  0.00    +0.000 N 
ATOM     14  C   UNL     1     -43.651 -15.881 -21.742  0.00  0.00    +0.000 C 
ATOM     15  O   UNL     1     -42.658 -15.140 -21.967  0.00  0.00    +0.000 OA
ATOM     16  H   UNL     1     -43.778 -15.475 -19.710  0.00  0.00    +0.000 HD
BRANCH  13  24
ATOM     17  C   UNL     1     -42.410 -18.191 -19.118  0.00  0.00    +0.000 C 
ATOM     18  C   UNL     1     -43.884 -18.369 -19.296  0.00  0.00    +0.000 A 
ATOM     19  C   UNL     1     -44.514 -19.549 -18.854  0.00  0.00    +0.000 A 
ATOM     20 CL   UNL     1     -43.611 -20.843 -18.079  0.00  0.00    +0.000 Cl
ATOM     21  C   UNL     1     -45.890 -19.712 -19.028  0.00  0.00    +0.000 A 
ATOM     22  C   UNL     1     -46.646 -18.712 -19.643  0.00  0.00    +0.000 A 
ATOM     23  C   UNL     1     -46.026 -17.542 -20.080  0.00  0.00    +0.000 A 
ATOM     24  C   UNL     1     -44.647 -17.353 -19.900  0.00  0.00    +0.000 A 
ENDBRANCH  13  24
ENDBRANCH   1  14
BRANCH   9  25
ATOM     25  S   UNL     1     -42.152 -21.011 -22.788  0.00  0.00    +0.000 S 
ATOM     26  O   UNL     1     -42.556 -22.410 -23.166  0.00  0.00    +0.000 OA
ATOM     27  O   UNL     1     -42.164 -20.886 -21.290  0.00  0.00    +0.000 OA
BRANCH  25  28
ATOM     28  N   UNL     1     -40.555 -20.661 -23.393  0.00  0.00    +0.000 NA
ATOM     29  C   UNL     1     -39.856 -21.908 -23.742  0.00  0.00    +0.000 C 
ATOM     30  C   UNL     1     -39.268 -22.597 -22.505  0.00  0.00    +0.000 C 
ATOM     31  O   UNL     1     -38.407 -21.715 -21.835  0.00  0.00    +0.000 OA
ATOM     32  C   UNL     1     -39.225 -20.714 -21.291  0.00  0.00    +0.000 C 
ATOM     33  C   UNL     1     -39.807 -19.853 -22.417  0.00  0.00    +0.000 C 
ENDBRANCH  25  28
ENDBRANCH   9  25
TORSDOF 4
ENDMDL
