MODEL 1
REMARK VINA RESULT:      -6.8      0.000      0.000
REMARK  Name = ZINC000018200764
REMARK  2 active torsions:
REMARK  status: ('A' for Active; 'I' for Inactive)
REMARK    1  A    between atoms: C_14  and  O_15
REMARK    2  A    between atoms: C_17  and  C_21
REMARK                            x       y       z     vdW  Elec       q    Type
REMARK                         _______ _______ _______ _____ _____    ______ ____
ROOT
ATOM      1  C   UNL     1     -44.129 -10.097 -30.860  0.00  0.00    +0.000 C 
ATOM      2  C   UNL     1     -45.613 -10.380 -31.039  0.00  0.00    +0.000 C 
ATOM      3  C   UNL     1     -45.782 -11.854 -31.337  0.00  0.00    +0.000 C 
ATOM      4  C   UNL     1     -46.160  -9.578 -32.221  0.00  0.00    +0.000 C 
ATOM      5  C   UNL     1     -46.414  -8.136 -31.886  0.00  0.00    +0.000 C 
ATOM      6  O   UNL     1     -46.627  -7.327 -32.829  0.00  0.00    +0.000 OA
ATOM      7  C   UNL     1     -46.441  -7.662 -30.481  0.00  0.00    +0.000 C 
ATOM      8  C   UNL     1     -46.408  -8.575 -29.466  0.00  0.00    +0.000 C 
ATOM      9  C   UNL     1     -46.376 -10.049 -29.756  0.00  0.00    +0.000 C 
ATOM     10  N   UNL     1     -46.518  -8.167 -28.090  0.00  0.00    +0.000 N 
ATOM     11  C   UNL     1     -46.688  -6.786 -27.800  0.00  0.00    +0.000 A 
ATOM     12  N   UNL     1     -46.876  -6.241 -26.585  0.00  0.00    +0.000 N 
ATOM     13  N   UNL     1     -47.013  -4.930 -26.764  0.00  0.00    +0.000 NA
ATOM     14  C   UNL     1     -46.911  -4.672 -28.086  0.00  0.00    +0.000 A 
ATOM     15  C   UNL     1     -46.708  -5.845 -28.772  0.00  0.00    +0.000 A 
ATOM     16  C   UNL     1     -46.475  -6.151 -30.219  0.00  0.00    +0.000 C 
ATOM     17  H   UNL     1     -46.476  -8.831 -27.365  0.00  0.00    +0.000 HD
ATOM     18  H   UNL     1     -46.907  -6.722 -25.726  0.00  0.00    +0.000 HD
ENDROOT
BRANCH  16  19
ATOM     19  C   UNL     1     -45.214  -5.480 -30.703  0.00  0.00    +0.000 A 
ATOM     20  C   UNL     1     -43.967  -5.897 -30.217  0.00  0.00    +0.000 A 
ATOM     21  C   UNL     1     -42.801  -5.271 -30.659  0.00  0.00    +0.000 A 
ATOM     22  N   UNL     1     -42.871  -4.253 -31.558  0.00  0.00    +0.000 NA
ATOM     23  C   UNL     1     -44.060  -3.816 -32.050  0.00  0.00    +0.000 A 
ATOM     24  C   UNL     1     -44.088  -2.765 -32.971  0.00  0.00    +0.000 A 
ATOM     25  C   UNL     1     -45.308  -2.310 -33.478  0.00  0.00    +0.000 A 
ATOM     26  C   UNL     1     -46.505  -2.904 -33.067  0.00  0.00    +0.000 A 
ATOM     27  C   UNL     1     -46.486  -3.956 -32.147  0.00  0.00    +0.000 A 
ATOM     28  C   UNL     1     -45.268  -4.423 -31.630  0.00  0.00    +0.000 A 
ENDBRANCH  16  19
BRANCH  14  29
ATOM     29  O   UNL     1     -46.993  -3.403 -28.642  0.00  0.00    +0.000 OA
ATOM     30  H   UNL     1     -46.796  -3.275 -29.549  0.00  0.00    +0.000 HD
ENDBRANCH  14  29
TORSDOF 2
ENDMDL
MODEL 2
REMARK VINA RESULT:      -6.7      2.406      6.175
REMARK  Name = ZINC000018200764
REMARK  2 active torsions:
REMARK  status: ('A' for Active; 'I' for Inactive)
REMARK    1  A    between atoms: C_14  and  O_15
REMARK    2  A    between atoms: C_17  and  C_21
REMARK                            x       y       z     vdW  Elec       q    Type
REMARK                         _______ _______ _______ _____ _____    ______ ____
ROOT
ATOM      1  C   UNL     1     -42.857  -2.418 -32.537  0.00  0.00    +0.000 C 
ATOM      2  C   UNL     1     -44.226  -1.794 -32.765  0.00  0.00    +0.000 C 
ATOM      3  C   UNL     1     -44.032  -0.459 -33.450  0.00  0.00    +0.000 C 
ATOM      4  C   UNL     1     -44.924  -1.557 -31.424  0.00  0.00    +0.000 C 
ATOM      5  C   UNL     1     -45.523  -2.807 -30.844  0.00  0.00    +0.000 C 
ATOM      6  O   UNL     1     -45.902  -2.791 -29.642  0.00  0.00    +0.000 OA
ATOM      7  C   UNL     1     -45.693  -4.034 -31.659  0.00  0.00    +0.000 C 
ATOM      8  C   UNL     1     -45.464  -3.980 -33.004  0.00  0.00    +0.000 C 
ATOM      9  C   UNL     1     -45.075  -2.689 -33.669  0.00  0.00    +0.000 C 
ATOM     10  N   UNL     1     -45.698  -5.122 -33.849  0.00  0.00    +0.000 N 
ATOM     11  C   UNL     1     -46.200  -6.314 -33.258  0.00  0.00    +0.000 A 
ATOM     12  N   UNL     1     -46.540  -7.444 -33.904  0.00  0.00    +0.000 N 
ATOM     13  N   UNL     1     -46.982  -8.298 -32.985  0.00  0.00    +0.000 NA
ATOM     14  C   UNL     1     -46.916  -7.692 -31.779  0.00  0.00    +0.000 A 
ATOM     15  C   UNL     1     -46.424  -6.419 -31.928  0.00  0.00    +0.000 A 
ATOM     16  C   UNL     1     -46.092  -5.334 -30.951  0.00  0.00    +0.000 C 
ATOM     17  H   UNL     1     -45.515  -5.078 -34.815  0.00  0.00    +0.000 HD
ATOM     18  H   UNL     1     -46.473  -7.608 -34.873  0.00  0.00    +0.000 HD
ENDROOT
BRANCH  16  19
ATOM     19  C   UNL     1     -45.018  -5.793 -29.997  0.00  0.00    +0.000 A 
ATOM     20  C   UNL     1     -43.711  -5.997 -30.459  0.00  0.00    +0.000 A 
ATOM     21  C   UNL     1     -42.719  -6.430 -29.579  0.00  0.00    +0.000 A 
ATOM     22  N   UNL     1     -43.018  -6.660 -28.273  0.00  0.00    +0.000 NA
ATOM     23  C   UNL     1     -44.274  -6.479 -27.786  0.00  0.00    +0.000 A 
ATOM     24  C   UNL     1     -44.540  -6.729 -26.437  0.00  0.00    +0.000 A 
ATOM     25  C   UNL     1     -45.831  -6.547 -25.932  0.00  0.00    +0.000 A 
ATOM     26  C   UNL     1     -46.860  -6.115 -26.773  0.00  0.00    +0.000 A 
ATOM     27  C   UNL     1     -46.602  -5.862 -28.123  0.00  0.00    +0.000 A 
ATOM     28  C   UNL     1     -45.311  -6.040 -28.643  0.00  0.00    +0.000 A 
ENDBRANCH  16  19
BRANCH  14  29
ATOM     29  O   UNL     1     -47.287  -8.291 -30.584  0.00  0.00    +0.000 OA
ATOM     30  H   UNL     1     -46.735  -8.940 -30.193  0.00  0.00    +0.000 HD
ENDBRANCH  14  29
TORSDOF 2
ENDMDL
MODEL 3
REMARK VINA RESULT:      -6.7      1.883      2.393
REMARK  Name = ZINC000018200764
REMARK  2 active torsions:
REMARK  status: ('A' for Active; 'I' for Inactive)
REMARK    1  A    between atoms: C_14  and  O_15
REMARK    2  A    between atoms: C_17  and  C_21
REMARK                            x       y       z     vdW  Elec       q    Type
REMARK                         _______ _______ _______ _____ _____    ______ ____
ROOT
ATOM      1  C   UNL     1     -44.433  -9.448 -33.548  0.00  0.00    +0.000 C 
ATOM      2  C   UNL     1     -45.821  -9.238 -34.134  0.00  0.00    +0.000 C 
ATOM      3  C   UNL     1     -46.181 -10.459 -34.952  0.00  0.00    +0.000 C 
ATOM      4  C   UNL     1     -45.821  -8.017 -35.056  0.00  0.00    +0.000 C 
ATOM      5  C   UNL     1     -45.874  -6.715 -34.308  0.00  0.00    +0.000 C 
ATOM      6  O   UNL     1     -45.631  -5.650 -34.935  0.00  0.00    +0.000 OA
ATOM      7  C   UNL     1     -46.225  -6.665 -32.868  0.00  0.00    +0.000 C 
ATOM      8  C   UNL     1     -46.677  -7.796 -32.249  0.00  0.00    +0.000 C 
ATOM      9  C   UNL     1     -46.852  -9.076 -33.016  0.00  0.00    +0.000 C 
ATOM     10  N   UNL     1     -47.110  -7.775 -30.877  0.00  0.00    +0.000 N 
ATOM     11  C   UNL     1     -47.083  -6.540 -30.173  0.00  0.00    +0.000 A 
ATOM     12  N   UNL     1     -47.515  -6.326 -28.916  0.00  0.00    +0.000 N 
ATOM     13  N   UNL     1     -47.330  -5.035 -28.658  0.00  0.00    +0.000 NA
ATOM     14  C   UNL     1     -46.789  -4.458 -29.753  0.00  0.00    +0.000 A 
ATOM     15  C   UNL     1     -46.626  -5.399 -30.739  0.00  0.00    +0.000 A 
ATOM     16  C   UNL     1     -46.036  -5.343 -32.115  0.00  0.00    +0.000 C 
ATOM     17  H   UNL     1     -47.419  -8.598 -30.435  0.00  0.00    +0.000 HD
ATOM     18  H   UNL     1     -47.894  -6.998 -28.305  0.00  0.00    +0.000 HD
ENDROOT
BRANCH  16  19
ATOM     19  C   UNL     1     -44.582  -4.949 -32.049  0.00  0.00    +0.000 A 
ATOM     20  C   UNL     1     -43.632  -5.854 -31.556  0.00  0.00    +0.000 A 
ATOM     21  C   UNL     1     -42.288  -5.486 -31.487  0.00  0.00    +0.000 A 
ATOM     22  N   UNL     1     -41.896  -4.250 -31.894  0.00  0.00    +0.000 NA
ATOM     23  C   UNL     1     -42.786  -3.342 -32.375  0.00  0.00    +0.000 A 
ATOM     24  C   UNL     1     -42.343  -2.080 -32.780  0.00  0.00    +0.000 A 
ATOM     25  C   UNL     1     -43.254  -1.142 -33.272  0.00  0.00    +0.000 A 
ATOM     26  C   UNL     1     -44.612  -1.460 -33.360  0.00  0.00    +0.000 A 
ATOM     27  C   UNL     1     -45.064  -2.720 -32.957  0.00  0.00    +0.000 A 
ATOM     28  C   UNL     1     -44.160  -3.672 -32.462  0.00  0.00    +0.000 A 
ENDBRANCH  16  19
BRANCH  14  29
ATOM     29  O   UNL     1     -46.449  -3.115 -29.840  0.00  0.00    +0.000 OA
ATOM     30  H   UNL     1     -46.811  -2.499 -29.233  0.00  0.00    +0.000 HD
ENDBRANCH  14  29
TORSDOF 2
ENDMDL
