MODEL 1
REMARK VINA RESULT:      -6.2      0.000      0.000
REMARK  Name = ZINC000005372517 ZINC05372517 PubChem-92261927
REMARK  9 active torsions:
REMARK  status: ('A' for Active; 'I' for Inactive)
REMARK    1  A    between atoms: N_14  and  C_20
REMARK    2  A    between atoms: C_20  and  C_21
REMARK    3  A    between atoms: C_21  and  O_22
REMARK    4  A    between atoms: C_21  and  C_24
REMARK    5  A    between atoms: C_24  and  O_25
REMARK    6  A    between atoms: C_24  and  C_27
REMARK    7  A    between atoms: C_27  and  O_28
REMARK    8  A    between atoms: C_27  and  C_30
REMARK    9  A    between atoms: C_30  and  O_31
REMARK                            x       y       z     vdW  Elec       q    Type
REMARK                         _______ _______ _______ _____ _____    ______ ____
ROOT
ATOM      1  C   UNL     1     -47.077  -3.754 -23.614  0.00  0.00    +0.000 C 
ATOM      2  C   UNL     1     -47.066  -4.139 -25.054  0.00  0.00    +0.000 A 
ATOM      3  C   UNL     1     -46.766  -5.461 -25.391  0.00  0.00    +0.000 A 
ATOM      4  C   UNL     1     -46.744  -5.865 -26.728  0.00  0.00    +0.000 A 
ATOM      5  C   UNL     1     -46.436  -7.187 -27.029  0.00  0.00    +0.000 A 
ATOM      6  C   UNL     1     -46.405  -7.606 -28.354  0.00  0.00    +0.000 A 
ATOM      7  C   UNL     1     -46.096  -8.922 -28.720  0.00  0.00    +0.000 A 
ATOM      8  O   UNL     1     -45.836  -9.789 -27.843  0.00  0.00    +0.000 OA
ATOM      9  N   UNL     1     -46.076  -9.270 -30.034  0.00  0.00    +0.000 N 
ATOM     10  C   UNL     1     -46.345  -8.387 -31.034  0.00  0.00    +0.000 A 
ATOM     11  O   UNL     1     -46.308  -8.771 -32.231  0.00  0.00    +0.000 OA
ATOM     12  C   UNL     1     -46.662  -7.058 -30.746  0.00  0.00    +0.000 A 
ATOM     13  C   UNL     1     -46.707  -6.621 -29.417  0.00  0.00    +0.000 A 
ATOM     14  N   UNL     1     -47.016  -5.327 -29.082  0.00  0.00    +0.000 N 
ATOM     15  C   UNL     1     -47.030  -4.936 -27.763  0.00  0.00    +0.000 A 
ATOM     16  C   UNL     1     -47.325  -3.609 -27.405  0.00  0.00    +0.000 A 
ATOM     17  C   UNL     1     -47.346  -3.206 -26.067  0.00  0.00    +0.000 A 
ATOM     18  C   UNL     1     -47.669  -1.785 -25.752  0.00  0.00    +0.000 C 
ATOM     19  H   UNL     1     -45.858 -10.199 -30.272  0.00  0.00    +0.000 HD
ENDROOT
BRANCH  14  20
ATOM     20  C   UNL     1     -47.341  -4.355 -30.135  0.00  0.00    +0.000 C 
BRANCH  20  21
ATOM     21  C   UNL     1     -46.073  -3.744 -30.722  0.00  0.00    +0.000 C 
BRANCH  21  22
ATOM     22  O   UNL     1     -45.957  -2.418 -30.299  0.00  0.00    +0.000 OA
ATOM     23  H   UNL     1     -45.122  -2.047 -30.624  0.00  0.00    +0.000 HD
ENDBRANCH  21  22
BRANCH  21  24
ATOM     24  C   UNL     1     -46.075  -3.831 -32.252  0.00  0.00    +0.000 C 
BRANCH  24  25
ATOM     25  O   UNL     1     -47.092  -3.048 -32.806  0.00  0.00    +0.000 OA
ATOM     26  H   UNL     1     -46.756  -2.585 -33.588  0.00  0.00    +0.000 HD
ENDBRANCH  24  25
BRANCH  24  27
ATOM     27  C   UNL     1     -44.718  -3.504 -32.884  0.00  0.00    +0.000 C 
BRANCH  27  28
ATOM     28  O   UNL     1     -43.721  -3.545 -31.911  0.00  0.00    +0.000 OA
ATOM     29  H   UNL     1     -44.126  -3.519 -31.030  0.00  0.00    +0.000 HD
ENDBRANCH  27  28
BRANCH  27  30
ATOM     30  C   UNL     1     -44.689  -2.153 -33.589  0.00  0.00    +0.000 C 
BRANCH  30  31
ATOM     31  O   UNL     1     -44.739  -1.121 -32.652  0.00  0.00    +0.000 OA
ATOM     32  H   UNL     1     -45.544  -1.209 -32.117  0.00  0.00    +0.000 HD
ENDBRANCH  30  31
ENDBRANCH  27  30
ENDBRANCH  24  27
ENDBRANCH  21  24
ENDBRANCH  20  21
ENDBRANCH  14  20
TORSDOF 9
ENDMDL
MODEL 2
REMARK VINA RESULT:      -6.0     11.960     15.746
REMARK  Name = ZINC000005372517 ZINC05372517 PubChem-92261927
REMARK  9 active torsions:
REMARK  status: ('A' for Active; 'I' for Inactive)
REMARK    1  A    between atoms: N_14  and  C_20
REMARK    2  A    between atoms: C_20  and  C_21
REMARK    3  A    between atoms: C_21  and  O_22
REMARK    4  A    between atoms: C_21  and  C_24
REMARK    5  A    between atoms: C_24  and  O_25
REMARK    6  A    between atoms: C_24  and  C_27
REMARK    7  A    between atoms: C_27  and  O_28
REMARK    8  A    between atoms: C_27  and  C_30
REMARK    9  A    between atoms: C_30  and  O_31
REMARK                            x       y       z     vdW  Elec       q    Type
REMARK                         _______ _______ _______ _____ _____    ______ ____
ROOT
ATOM      1  C   UNL     1     -46.553 -12.609 -19.316  0.00  0.00    +0.000 C 
ATOM      2  C   UNL     1     -46.271 -13.947 -19.909  0.00  0.00    +0.000 A 
ATOM      3  C   UNL     1     -46.126 -14.050 -21.294  0.00  0.00    +0.000 A 
ATOM      4  C   UNL     1     -45.861 -15.285 -21.891  0.00  0.00    +0.000 A 
ATOM      5  C   UNL     1     -45.729 -15.352 -23.273  0.00  0.00    +0.000 A 
ATOM      6  C   UNL     1     -45.468 -16.573 -23.885  0.00  0.00    +0.000 A 
ATOM      7  C   UNL     1     -45.330 -16.705 -25.272  0.00  0.00    +0.000 A 
ATOM      8  O   UNL     1     -45.434 -15.702 -26.028  0.00  0.00    +0.000 OA
ATOM      9  N   UNL     1     -45.082 -17.928 -25.812  0.00  0.00    +0.000 N 
ATOM     10  C   UNL     1     -44.959 -19.055 -25.058  0.00  0.00    +0.000 A 
ATOM     11  O   UNL     1     -44.731 -20.158 -25.619  0.00  0.00    +0.000 OA
ATOM     12  C   UNL     1     -45.084 -19.001 -23.669  0.00  0.00    +0.000 A 
ATOM     13  C   UNL     1     -45.336 -17.779 -23.036  0.00  0.00    +0.000 A 
ATOM     14  N   UNL     1     -45.463 -17.672 -21.673  0.00  0.00    +0.000 N 
ATOM     15  C   UNL     1     -45.730 -16.453 -21.095  0.00  0.00    +0.000 A 
ATOM     16  C   UNL     1     -45.884 -16.332 -19.702  0.00  0.00    +0.000 A 
ATOM     17  C   UNL     1     -46.150 -15.096 -19.107  0.00  0.00    +0.000 A 
ATOM     18  C   UNL     1     -46.299 -15.032 -17.625  0.00  0.00    +0.000 C 
ATOM     19  H   UNL     1     -44.988 -18.002 -26.789  0.00  0.00    +0.000 HD
ENDROOT
BRANCH  14  20
ATOM     20  C   UNL     1     -45.307 -18.864 -20.828  0.00  0.00    +0.000 C 
BRANCH  20  21
ATOM     21  C   UNL     1     -43.849 -19.062 -20.430  0.00  0.00    +0.000 C 
BRANCH  21  22
ATOM     22  O   UNL     1     -43.309 -20.128 -21.153  0.00  0.00    +0.000 OA
ATOM     23  H   UNL     1     -42.438 -20.355 -20.793  0.00  0.00    +0.000 HD
ENDBRANCH  21  22
BRANCH  21  24
ATOM     24  C   UNL     1     -43.717 -19.303 -18.922  0.00  0.00    +0.000 C 
BRANCH  24  25
ATOM     25  O   UNL     1     -44.950 -19.616 -18.346  0.00  0.00    +0.000 OA
ATOM     26  H   UNL     1     -45.415 -20.260 -18.903  0.00  0.00    +0.000 HD
ENDBRANCH  24  25
BRANCH  24  27
ATOM     27  C   UNL     1     -42.656 -20.349 -18.562  0.00  0.00    +0.000 C 
BRANCH  27  28
ATOM     28  O   UNL     1     -43.262 -21.589 -18.363  0.00  0.00    +0.000 OA
ATOM     29  H   UNL     1     -43.638 -21.627 -17.469  0.00  0.00    +0.000 HD
ENDBRANCH  27  28
BRANCH  27  30
ATOM     30  C   UNL     1     -41.834 -19.979 -17.333  0.00  0.00    +0.000 C 
BRANCH  30  31
ATOM     31  O   UNL     1     -42.581 -19.163 -16.483  0.00  0.00    +0.000 OA
ATOM     32  H   UNL     1     -42.068 -18.369 -16.264  0.00  0.00    +0.000 HD
ENDBRANCH  30  31
ENDBRANCH  27  30
ENDBRANCH  24  27
ENDBRANCH  21  24
ENDBRANCH  20  21
ENDBRANCH  14  20
TORSDOF 9
ENDMDL
MODEL 3
REMARK VINA RESULT:      -5.8      1.111      1.509
REMARK  Name = ZINC000005372517 ZINC05372517 PubChem-92261927
REMARK  9 active torsions:
REMARK  status: ('A' for Active; 'I' for Inactive)
REMARK    1  A    between atoms: N_14  and  C_20
REMARK    2  A    between atoms: C_20  and  C_21
REMARK    3  A    between atoms: C_21  and  O_22
REMARK    4  A    between atoms: C_21  and  C_24
REMARK    5  A    between atoms: C_24  and  O_25
REMARK    6  A    between atoms: C_24  and  C_27
REMARK    7  A    between atoms: C_27  and  O_28
REMARK    8  A    between atoms: C_27  and  C_30
REMARK    9  A    between atoms: C_30  and  O_31
REMARK                            x       y       z     vdW  Elec       q    Type
REMARK                         _______ _______ _______ _____ _____    ______ ____
ROOT
ATOM      1  C   UNL     1     -47.087  -3.587 -23.569  0.00  0.00    +0.000 C 
ATOM      2  C   UNL     1     -47.074  -4.125 -24.959  0.00  0.00    +0.000 A 
ATOM      3  C   UNL     1     -46.813  -5.484 -25.149  0.00  0.00    +0.000 A 
ATOM      4  C   UNL     1     -46.791  -6.030 -26.435  0.00  0.00    +0.000 A 
ATOM      5  C   UNL     1     -46.521  -7.385 -26.589  0.00  0.00    +0.000 A 
ATOM      6  C   UNL     1     -46.491  -7.945 -27.861  0.00  0.00    +0.000 A 
ATOM      7  C   UNL     1     -46.221  -9.301 -28.080  0.00  0.00    +0.000 A 
ATOM      8  O   UNL     1     -45.997 -10.077 -27.112  0.00  0.00    +0.000 OA
ATOM      9  N   UNL     1     -46.199  -9.789 -29.349  0.00  0.00    +0.000 N 
ATOM     10  C   UNL     1     -46.431  -9.010 -30.441  0.00  0.00    +0.000 A 
ATOM     11  O   UNL     1     -46.394  -9.521 -31.590  0.00  0.00    +0.000 OA
ATOM     12  C   UNL     1     -46.708  -7.649 -30.301  0.00  0.00    +0.000 A 
ATOM     13  C   UNL     1     -46.751  -7.071 -29.027  0.00  0.00    +0.000 A 
ATOM     14  N   UNL     1     -47.023  -5.739 -28.836  0.00  0.00    +0.000 N 
ATOM     15  C   UNL     1     -47.037  -5.209 -27.567  0.00  0.00    +0.000 A 
ATOM     16  C   UNL     1     -47.294  -3.842 -27.357  0.00  0.00    +0.000 A 
ATOM     17  C   UNL     1     -47.315  -3.299 -26.070  0.00  0.00    +0.000 A 
ATOM     18  C   UNL     1     -47.596  -1.843 -25.913  0.00  0.00    +0.000 C 
ATOM     19  H   UNL     1     -46.008 -10.744 -29.483  0.00  0.00    +0.000 HD
ENDROOT
BRANCH  14  20
ATOM     20  C   UNL     1     -47.307  -4.877 -29.992  0.00  0.00    +0.000 C 
BRANCH  20  21
ATOM     21  C   UNL     1     -46.034  -4.205 -30.495  0.00  0.00    +0.000 C 
BRANCH  21  22
ATOM     22  O   UNL     1     -46.166  -2.819 -30.386  0.00  0.00    +0.000 OA
ATOM     23  H   UNL     1     -46.907  -2.520 -30.936  0.00  0.00    +0.000 HD
ENDBRANCH  21  22
BRANCH  21  24
ATOM     24  C   UNL     1     -45.730  -4.611 -31.941  0.00  0.00    +0.000 C 
BRANCH  24  25
ATOM     25  O   UNL     1     -44.846  -5.693 -31.991  0.00  0.00    +0.000 OA
ATOM     26  H   UNL     1     -44.723  -6.053 -31.099  0.00  0.00    +0.000 HD
ENDBRANCH  24  25
BRANCH  24  27
ATOM     27  C   UNL     1     -46.985  -4.883 -32.776  0.00  0.00    +0.000 C 
BRANCH  27  28
ATOM     28  O   UNL     1     -46.828  -6.068 -33.495  0.00  0.00    +0.000 OA
ATOM     29  H   UNL     1     -45.969  -6.062 -33.947  0.00  0.00    +0.000 HD
ENDBRANCH  27  28
BRANCH  27  30
ATOM     30  C   UNL     1     -47.334  -3.748 -33.731  0.00  0.00    +0.000 C 
BRANCH  30  31
ATOM     31  O   UNL     1     -46.450  -2.683 -33.555  0.00  0.00    +0.000 OA
ATOM     32  H   UNL     1     -46.336  -2.215 -34.398  0.00  0.00    +0.000 HD
ENDBRANCH  30  31
ENDBRANCH  27  30
ENDBRANCH  24  27
ENDBRANCH  21  24
ENDBRANCH  20  21
ENDBRANCH  14  20
TORSDOF 9
ENDMDL
