MODEL 1
REMARK VINA RESULT:      -7.2      0.000      0.000
REMARK  Name = ZINC000004257540
REMARK  8 active torsions:
REMARK  status: ('A' for Active; 'I' for Inactive)
REMARK    1  A    between atoms: C_6  and  O_23
REMARK    2  A    between atoms: C_11  and  C_12
REMARK    3  A    between atoms: O_23  and  C_24
REMARK    4  A    between atoms: C_26  and  C_36
REMARK    5  A    between atoms: C_27  and  O_28
REMARK    6  A    between atoms: C_29  and  O_30
REMARK    7  A    between atoms: C_31  and  O_32
REMARK    8  A    between atoms: C_36  and  O_37
REMARK                            x       y       z     vdW  Elec       q    Type
REMARK                         _______ _______ _______ _____ _____    ______ ____
ROOT
ATOM      1  O   UNL     1     -46.483 -13.831 -24.671  0.00  0.00    +0.000 OA
ATOM      2  C   UNL     1     -45.782 -14.670 -25.300  0.00  0.00    +0.000 A 
ATOM      3  C   UNL     1     -45.370 -15.848 -24.659  0.00  0.00    +0.000 A 
ATOM      4  C   UNL     1     -45.716 -16.122 -23.328  0.00  0.00    +0.000 A 
ATOM      5  C   UNL     1     -45.290 -17.306 -22.721  0.00  0.00    +0.000 A 
ATOM      6  C   UNL     1     -44.514 -18.232 -23.437  0.00  0.00    +0.000 A 
ATOM      7  C   UNL     1     -44.168 -17.959 -24.764  0.00  0.00    +0.000 A 
ATOM      8  C   UNL     1     -44.589 -16.777 -25.378  0.00  0.00    +0.000 A 
ATOM      9  O   UNL     1     -44.252 -16.533 -26.638  0.00  0.00    +0.000 OA
ATOM     10  C   UNL     1     -44.624 -15.428 -27.274  0.00  0.00    +0.000 A 
ATOM     11  C   UNL     1     -45.402 -14.441 -26.644  0.00  0.00    +0.000 A 
ENDROOT
BRANCH  11  12
ATOM     12  C   UNL     1     -45.784 -13.222 -27.420  0.00  0.00    +0.000 A 
ATOM     13  C   UNL     1     -46.623 -13.337 -28.541  0.00  0.00    +0.000 A 
ATOM     14  C   UNL     1     -47.009 -12.209 -29.268  0.00  0.00    +0.000 A 
ATOM     15  C   UNL     1     -46.559 -10.941 -28.894  0.00  0.00    +0.000 A 
ATOM     16  C   UNL     1     -45.659 -10.814 -27.813  0.00  0.00    +0.000 A 
ATOM     17  C   UNL     1     -45.307 -11.948 -27.075  0.00  0.00    +0.000 A 
ATOM     18  O   UNL     1     -45.069  -9.592 -27.477  0.00  0.00    +0.000 OA
ATOM     19  C   UNL     1     -44.771  -8.602 -28.458  0.00  0.00    +0.000 C 
ATOM     20  C   UNL     1     -45.991  -7.763 -28.819  0.00  0.00    +0.000 C 
ATOM     21  C   UNL     1     -47.272  -8.581 -28.934  0.00  0.00    +0.000 C 
ATOM     22  O   UNL     1     -47.053  -9.829 -29.584  0.00  0.00    +0.000 OA
ENDBRANCH  11  12
BRANCH   6  23
ATOM     23  O   UNL     1     -44.073 -19.424 -22.855  0.00  0.00    +0.000 OA
BRANCH  23  24
ATOM     24  C   UNL     1     -43.021 -19.480 -21.895  0.00  0.00    +0.000 C 
ATOM     25  O   UNL     1     -43.473 -20.142 -20.733  0.00  0.00    +0.000 OA
ATOM     26  C   UNL     1     -42.427 -20.060 -19.798  0.00  0.00    +0.000 C 
ATOM     27  C   UNL     1     -41.288 -21.038 -20.168  0.00  0.00    +0.000 C 
ATOM     28  C   UNL     1     -41.289 -21.358 -21.676  0.00  0.00    +0.000 C 
ATOM     29  C   UNL     1     -41.745 -20.137 -22.487  0.00  0.00    +0.000 C 
BRANCH  27  30
ATOM     30  O   UNL     1     -41.342 -22.219 -19.420  0.00  0.00    +0.000 OA
ATOM     31  H   UNL     1     -41.450 -22.976 -20.016  0.00  0.00    +0.000 HD
ENDBRANCH  27  30
BRANCH  28  32
ATOM     32  O   UNL     1     -42.129 -22.445 -21.945  0.00  0.00    +0.000 OA
ATOM     33  H   UNL     1     -41.590 -23.232 -22.125  0.00  0.00    +0.000 HD
ENDBRANCH  28  32
BRANCH  29  34
ATOM     34  O   UNL     1     -41.897 -20.466 -23.837  0.00  0.00    +0.000 OA
ATOM     35  H   UNL     1     -41.717 -21.410 -23.962  0.00  0.00    +0.000 HD
ENDBRANCH  29  34
BRANCH  26  36
ATOM     36  C   UNL     1     -42.950 -20.244 -18.381  0.00  0.00    +0.000 C 
BRANCH  36  37
ATOM     37  O   UNL     1     -43.700 -21.418 -18.303  0.00  0.00    +0.000 OA
ATOM     38  H   UNL     1     -43.991 -21.676 -19.192  0.00  0.00    +0.000 HD
ENDBRANCH  36  37
ENDBRANCH  26  36
ENDBRANCH  23  24
ENDBRANCH   6  23
TORSDOF 8
ENDMDL
MODEL 2
REMARK VINA RESULT:      -7.1      3.934      7.584
REMARK  Name = ZINC000004257540
REMARK  8 active torsions:
REMARK  status: ('A' for Active; 'I' for Inactive)
REMARK    1  A    between atoms: C_6  and  O_23
REMARK    2  A    between atoms: C_11  and  C_12
REMARK    3  A    between atoms: O_23  and  C_24
REMARK    4  A    between atoms: C_26  and  C_36
REMARK    5  A    between atoms: C_27  and  O_28
REMARK    6  A    between atoms: C_29  and  O_30
REMARK    7  A    between atoms: C_31  and  O_32
REMARK    8  A    between atoms: C_36  and  O_37
REMARK                            x       y       z     vdW  Elec       q    Type
REMARK                         _______ _______ _______ _____ _____    ______ ____
ROOT
ATOM      1  O   UNL     1     -46.715  -8.796 -30.862  0.00  0.00    +0.000 OA
ATOM      2  C   UNL     1     -46.586  -8.736 -29.609  0.00  0.00    +0.000 A 
ATOM      3  C   UNL     1     -46.630  -9.916 -28.851  0.00  0.00    +0.000 A 
ATOM      4  C   UNL     1     -46.816 -11.169 -29.450  0.00  0.00    +0.000 A 
ATOM      5  C   UNL     1     -46.852 -12.325 -28.665  0.00  0.00    +0.000 A 
ATOM      6  C   UNL     1     -46.702 -12.241 -27.272  0.00  0.00    +0.000 A 
ATOM      7  C   UNL     1     -46.518 -10.992 -26.673  0.00  0.00    +0.000 A 
ATOM      8  C   UNL     1     -46.480  -9.831 -27.451  0.00  0.00    +0.000 A 
ATOM      9  O   UNL     1     -46.304  -8.653 -26.867  0.00  0.00    +0.000 OA
ATOM     10  C   UNL     1     -46.260  -7.518 -27.554  0.00  0.00    +0.000 A 
ATOM     11  C   UNL     1     -46.399  -7.496 -28.953  0.00  0.00    +0.000 A 
ENDROOT
BRANCH  11  12
ATOM     12  C   UNL     1     -46.339  -6.181 -29.662  0.00  0.00    +0.000 A 
ATOM     13  C   UNL     1     -47.519  -5.458 -29.901  0.00  0.00    +0.000 A 
ATOM     14  C   UNL     1     -47.484  -4.218 -30.543  0.00  0.00    +0.000 A 
ATOM     15  C   UNL     1     -46.268  -3.678 -30.968  0.00  0.00    +0.000 A 
ATOM     16  C   UNL     1     -45.080  -4.424 -30.800  0.00  0.00    +0.000 A 
ATOM     17  C   UNL     1     -45.127  -5.648 -30.127  0.00  0.00    +0.000 A 
ATOM     18  O   UNL     1     -43.856  -3.998 -31.325  0.00  0.00    +0.000 OA
ATOM     19  C   UNL     1     -43.772  -3.241 -32.529  0.00  0.00    +0.000 C 
ATOM     20  C   UNL     1     -44.037  -1.759 -32.297  0.00  0.00    +0.000 C 
ATOM     21  C   UNL     1     -45.174  -1.496 -31.316  0.00  0.00    +0.000 C 
ATOM     22  O   UNL     1     -46.265  -2.389 -31.511  0.00  0.00    +0.000 OA
ENDBRANCH  11  12
BRANCH   6  23
ATOM     23  O   UNL     1     -46.735 -13.380 -26.461  0.00  0.00    +0.000 OA
BRANCH  23  24
ATOM     24  C   UNL     1     -45.793 -13.623 -25.419  0.00  0.00    +0.000 C 
ATOM     25  O   UNL     1     -46.470 -13.758 -24.188  0.00  0.00    +0.000 OA
ATOM     26  C   UNL     1     -45.478 -13.881 -23.201  0.00  0.00    +0.000 C 
ATOM     27  C   UNL     1     -44.838 -15.289 -23.245  0.00  0.00    +0.000 C 
ATOM     28  C   UNL     1     -44.976 -15.925 -24.642  0.00  0.00    +0.000 C 
ATOM     29  C   UNL     1     -44.898 -14.851 -25.736  0.00  0.00    +0.000 C 
BRANCH  27  30
ATOM     30  O   UNL     1     -45.366 -16.139 -22.268  0.00  0.00    +0.000 OA
ATOM     31  H   UNL     1     -44.761 -16.178 -21.511  0.00  0.00    +0.000 HD
ENDBRANCH  27  30
BRANCH  28  32
ATOM     32  O   UNL     1     -46.187 -16.619 -24.747  0.00  0.00    +0.000 OA
ATOM     33  H   UNL     1     -46.232 -17.061 -25.610  0.00  0.00    +0.000 HD
ENDBRANCH  28  32
BRANCH  29  34
ATOM     34  O   UNL     1     -45.176 -15.399 -26.992  0.00  0.00    +0.000 OA
ATOM     35  H   UNL     1     -46.135 -15.495 -27.097  0.00  0.00    +0.000 HD
ENDBRANCH  29  34
BRANCH  26  36
ATOM     36  C   UNL     1     -46.025 -13.505 -21.832  0.00  0.00    +0.000 C 
BRANCH  36  37
ATOM     37  O   UNL     1     -47.193 -14.223 -21.576  0.00  0.00    +0.000 OA
ATOM     38  H   UNL     1     -47.835 -13.647 -21.131  0.00  0.00    +0.000 HD
ENDBRANCH  36  37
ENDBRANCH  26  36
ENDBRANCH  23  24
ENDBRANCH   6  23
TORSDOF 8
ENDMDL
MODEL 3
REMARK VINA RESULT:      -6.9      4.097      7.799
REMARK  Name = ZINC000004257540
REMARK  8 active torsions:
REMARK  status: ('A' for Active; 'I' for Inactive)
REMARK    1  A    between atoms: C_6  and  O_23
REMARK    2  A    between atoms: C_11  and  C_12
REMARK    3  A    between atoms: O_23  and  C_24
REMARK    4  A    between atoms: C_26  and  C_36
REMARK    5  A    between atoms: C_27  and  O_28
REMARK    6  A    between atoms: C_29  and  O_30
REMARK    7  A    between atoms: C_31  and  O_32
REMARK    8  A    between atoms: C_36  and  O_37
REMARK                            x       y       z     vdW  Elec       q    Type
REMARK                         _______ _______ _______ _____ _____    ______ ____
ROOT
ATOM      1  O   UNL     1     -46.757  -8.826 -30.447  0.00  0.00    +0.000 OA
ATOM      2  C   UNL     1     -46.508  -8.724 -29.215  0.00  0.00    +0.000 A 
ATOM      3  C   UNL     1     -46.490  -9.877 -28.415  0.00  0.00    +0.000 A 
ATOM      4  C   UNL     1     -46.745 -11.147 -28.948  0.00  0.00    +0.000 A 
ATOM      5  C   UNL     1     -46.717 -12.275 -28.123  0.00  0.00    +0.000 A 
ATOM      6  C   UNL     1     -46.433 -12.145 -26.754  0.00  0.00    +0.000 A 
ATOM      7  C   UNL     1     -46.179 -10.878 -26.220  0.00  0.00    +0.000 A 
ATOM      8  C   UNL     1     -46.205  -9.746 -27.039  0.00  0.00    +0.000 A 
ATOM      9  O   UNL     1     -45.962  -8.551 -26.518  0.00  0.00    +0.000 OA
ATOM     10  C   UNL     1     -45.972  -7.441 -27.246  0.00  0.00    +0.000 A 
ATOM     11  C   UNL     1     -46.245  -7.465 -28.624  0.00  0.00    +0.000 A 
ENDROOT
BRANCH  11  12
ATOM     12  C   UNL     1     -46.241  -6.177 -29.382  0.00  0.00    +0.000 A 
ATOM     13  C   UNL     1     -47.432  -5.448 -29.537  0.00  0.00    +0.000 A 
ATOM     14  C   UNL     1     -47.447  -4.233 -30.223  0.00  0.00    +0.000 A 
ATOM     15  C   UNL     1     -46.271  -3.721 -30.777  0.00  0.00    +0.000 A 
ATOM     16  C   UNL     1     -45.079  -4.474 -30.693  0.00  0.00    +0.000 A 
ATOM     17  C   UNL     1     -45.072  -5.673 -29.976  0.00  0.00    +0.000 A 
ATOM     18  O   UNL     1     -43.904  -4.080 -31.343  0.00  0.00    +0.000 OA
ATOM     19  C   UNL     1     -43.927  -3.367 -32.576  0.00  0.00    +0.000 C 
ATOM     20  C   UNL     1     -44.158  -1.874 -32.374  0.00  0.00    +0.000 C 
ATOM     21  C   UNL     1     -45.196  -1.565 -31.302  0.00  0.00    +0.000 C 
ATOM     22  O   UNL     1     -46.308  -2.452 -31.364  0.00  0.00    +0.000 OA
ENDBRANCH  11  12
BRANCH   6  23
ATOM     23  O   UNL     1     -46.399 -13.255 -25.904  0.00  0.00    +0.000 OA
BRANCH  23  24
ATOM     24  C   UNL     1     -45.917 -14.534 -26.312  0.00  0.00    +0.000 C 
ATOM     25  O   UNL     1     -44.603 -14.409 -26.812  0.00  0.00    +0.000 OA
ATOM     26  C   UNL     1     -44.240 -15.677 -27.293  0.00  0.00    +0.000 C 
ATOM     27  C   UNL     1     -43.928 -16.636 -26.120  0.00  0.00    +0.000 C 
ATOM     28  C   UNL     1     -44.651 -16.200 -24.831  0.00  0.00    +0.000 C 
ATOM     29  C   UNL     1     -46.012 -15.570 -25.160  0.00  0.00    +0.000 C 
BRANCH  27  30
ATOM     30  O   UNL     1     -42.554 -16.760 -25.891  0.00  0.00    +0.000 OA
ATOM     31  H   UNL     1     -42.402 -17.373 -25.155  0.00  0.00    +0.000 HD
ENDBRANCH  27  30
BRANCH  28  32
ATOM     32  O   UNL     1     -43.868 -15.286 -24.116  0.00  0.00    +0.000 OA
ATOM     33  H   UNL     1     -44.348 -14.447 -24.031  0.00  0.00    +0.000 HD
ENDBRANCH  28  32
BRANCH  29  34
ATOM     34  O   UNL     1     -46.602 -15.034 -24.012  0.00  0.00    +0.000 OA
ATOM     35  H   UNL     1     -46.071 -15.269 -23.235  0.00  0.00    +0.000 HD
ENDBRANCH  29  34
BRANCH  26  36
ATOM     36  C   UNL     1     -43.110 -15.570 -28.307  0.00  0.00    +0.000 C 
BRANCH  36  37
ATOM     37  O   UNL     1     -42.940 -16.792 -28.957  0.00  0.00    +0.000 OA
ATOM     38  H   UNL     1     -43.518 -17.458 -28.552  0.00  0.00    +0.000 HD
ENDBRANCH  36  37
ENDBRANCH  26  36
ENDBRANCH  23  24
ENDBRANCH   6  23
TORSDOF 8
ENDMDL
