MODEL 1
REMARK VINA RESULT:      -6.0      0.000      0.000
REMARK  Name = ZINC000003831423 ZINC03831423 PubChem-7048776
REMARK  9 active torsions:
REMARK  status: ('A' for Active; 'I' for Inactive)
REMARK    1  A    between atoms: N_9  and  C_20
REMARK    2  A    between atoms: C_20  and  C_21
REMARK    3  A    between atoms: C_21  and  O_22
REMARK    4  A    between atoms: C_21  and  C_24
REMARK    5  A    between atoms: C_24  and  O_25
REMARK    6  A    between atoms: C_24  and  C_27
REMARK    7  A    between atoms: C_27  and  O_28
REMARK    8  A    between atoms: C_27  and  C_30
REMARK    9  A    between atoms: C_30  and  O_31
REMARK                            x       y       z     vdW  Elec       q    Type
REMARK                         _______ _______ _______ _____ _____    ______ ____
ROOT
ATOM      1  C   UNL     1     -46.690 -12.509 -19.631  0.00  0.00    +0.000 C 
ATOM      2  C   UNL     1     -46.387 -13.877 -20.140  0.00  0.00    +0.000 A 
ATOM      3  C   UNL     1     -46.200 -14.056 -21.513  0.00  0.00    +0.000 A 
ATOM      4  C   UNL     1     -45.913 -15.319 -22.034  0.00  0.00    +0.000 A 
ATOM      5  C   UNL     1     -45.808 -16.440 -21.166  0.00  0.00    +0.000 A 
ATOM      6  C   UNL     1     -46.000 -16.246 -19.788  0.00  0.00    +0.000 A 
ATOM      7  C   UNL     1     -46.287 -14.979 -19.273  0.00  0.00    +0.000 A 
ATOM      8  C   UNL     1     -46.479 -14.833 -17.801  0.00  0.00    +0.000 C 
ATOM      9  N   UNL     1     -45.524 -17.686 -21.675  0.00  0.00    +0.000 N 
ATOM     10  C   UNL     1     -45.348 -17.846 -23.019  0.00  0.00    +0.000 A 
ATOM     11  N   UNL     1     -45.072 -19.058 -23.568  0.00  0.00    +0.000 NA
ATOM     12  C   UNL     1     -44.898 -19.196 -24.910  0.00  0.00    +0.000 A 
ATOM     13  O   UNL     1     -44.643 -20.329 -25.392  0.00  0.00    +0.000 OA
ATOM     14  N   UNL     1     -44.998 -18.118 -25.738  0.00  0.00    +0.000 N 
ATOM     15  C   UNL     1     -45.272 -16.871 -25.272  0.00  0.00    +0.000 A 
ATOM     16  O   UNL     1     -45.356 -15.906 -26.076  0.00  0.00    +0.000 OA
ATOM     17  C   UNL     1     -45.460 -16.676 -23.905  0.00  0.00    +0.000 A 
ATOM     18  N   UNL     1     -45.738 -15.463 -23.372  0.00  0.00    +0.000 NA
ATOM     19  H   UNL     1     -44.867 -18.247 -26.705  0.00  0.00    +0.000 HD
ENDROOT
BRANCH   9  20
ATOM     20  C   UNL     1     -45.397 -18.847 -20.789  0.00  0.00    +0.000 C 
BRANCH  20  21
ATOM     21  C   UNL     1     -43.940 -19.081 -20.417  0.00  0.00    +0.000 C 
BRANCH  21  22
ATOM     22  O   UNL     1     -43.352 -19.985 -21.307  0.00  0.00    +0.000 OA
ATOM     23  H   UNL     1     -42.981 -19.501 -22.062  0.00  0.00    +0.000 HD
ENDBRANCH  21  22
BRANCH  21  24
ATOM     24  C   UNL     1     -43.835 -19.592 -18.981  0.00  0.00    +0.000 C 
BRANCH  24  25
ATOM     25  O   UNL     1     -44.966 -20.346 -18.654  0.00  0.00    +0.000 OA
ATOM     26  H   UNL     1     -45.024 -21.115 -19.242  0.00  0.00    +0.000 HD
ENDBRANCH  24  25
BRANCH  24  27
ATOM     27  C   UNL     1     -42.571 -20.424 -18.783  0.00  0.00    +0.000 C 
BRANCH  27  28
ATOM     28  O   UNL     1     -42.908 -21.769 -18.617  0.00  0.00    +0.000 OA
ATOM     29  H   UNL     1     -42.821 -22.231 -19.465  0.00  0.00    +0.000 HD
ENDBRANCH  27  28
BRANCH  27  30
ATOM     30  C   UNL     1     -41.809 -19.946 -17.556  0.00  0.00    +0.000 C 
BRANCH  30  31
ATOM     31  O   UNL     1     -42.704 -19.627 -16.535  0.00  0.00    +0.000 OA
ATOM     32  H   UNL     1     -42.790 -18.663 -16.471  0.00  0.00    +0.000 HD
ENDBRANCH  30  31
ENDBRANCH  27  30
ENDBRANCH  24  27
ENDBRANCH  21  24
ENDBRANCH  20  21
ENDBRANCH   9  20
TORSDOF 9
ENDMDL
MODEL 2
REMARK VINA RESULT:      -6.0     10.341     13.373
REMARK  Name = ZINC000003831423 ZINC03831423 PubChem-7048776
REMARK  9 active torsions:
REMARK  status: ('A' for Active; 'I' for Inactive)
REMARK    1  A    between atoms: N_9  and  C_20
REMARK    2  A    between atoms: C_20  and  C_21
REMARK    3  A    between atoms: C_21  and  O_22
REMARK    4  A    between atoms: C_21  and  C_24
REMARK    5  A    between atoms: C_24  and  O_25
REMARK    6  A    between atoms: C_24  and  C_27
REMARK    7  A    between atoms: C_27  and  O_28
REMARK    8  A    between atoms: C_27  and  C_30
REMARK    9  A    between atoms: C_30  and  O_31
REMARK                            x       y       z     vdW  Elec       q    Type
REMARK                         _______ _______ _______ _____ _____    ______ ____
ROOT
ATOM      1  C   UNL     1     -47.376  -3.154 -26.066  0.00  0.00    +0.000 C 
ATOM      2  C   UNL     1     -47.084  -4.263 -27.018  0.00  0.00    +0.000 A 
ATOM      3  C   UNL     1     -47.206  -4.021 -28.388  0.00  0.00    +0.000 A 
ATOM      4  C   UNL     1     -46.941  -5.031 -29.316  0.00  0.00    +0.000 A 
ATOM      5  C   UNL     1     -46.542  -6.320 -28.870  0.00  0.00    +0.000 A 
ATOM      6  C   UNL     1     -46.425  -6.550 -27.489  0.00  0.00    +0.000 A 
ATOM      7  C   UNL     1     -46.691  -5.535 -26.566  0.00  0.00    +0.000 A 
ATOM      8  C   UNL     1     -46.548  -5.836 -25.112  0.00  0.00    +0.000 C 
ATOM      9  N   UNL     1     -46.278  -7.317 -29.780  0.00  0.00    +0.000 N 
ATOM     10  C   UNL     1     -46.406  -7.068 -31.116  0.00  0.00    +0.000 A 
ATOM     11  N   UNL     1     -46.162  -8.023 -32.052  0.00  0.00    +0.000 NA
ATOM     12  C   UNL     1     -46.294  -7.752 -33.378  0.00  0.00    +0.000 A 
ATOM     13  O   UNL     1     -46.061  -8.655 -34.224  0.00  0.00    +0.000 OA
ATOM     14  N   UNL     1     -46.675  -6.515 -33.801  0.00  0.00    +0.000 N 
ATOM     15  C   UNL     1     -46.939  -5.503 -32.933  0.00  0.00    +0.000 A 
ATOM     16  O   UNL     1     -47.290  -4.376 -33.371  0.00  0.00    +0.000 OA
ATOM     17  C   UNL     1     -46.820  -5.728 -31.562  0.00  0.00    +0.000 A 
ATOM     18  N   UNL     1     -47.070  -4.768 -30.641  0.00  0.00    +0.000 NA
ATOM     19  H   UNL     1     -46.762  -6.347 -34.767  0.00  0.00    +0.000 HD
ENDROOT
BRANCH   9  20
ATOM     20  C   UNL     1     -45.850  -8.647 -29.334  0.00  0.00    +0.000 C 
BRANCH  20  21
ATOM     21  C   UNL     1     -47.034  -9.602 -29.287  0.00  0.00    +0.000 C 
BRANCH  21  22
ATOM     22  O   UNL     1     -47.490  -9.743 -27.973  0.00  0.00    +0.000 OA
ATOM     23  H   UNL     1     -47.842 -10.639 -27.847  0.00  0.00    +0.000 HD
ENDBRANCH  21  22
BRANCH  21  24
ATOM     24  C   UNL     1     -46.643 -10.959 -29.870  0.00  0.00    +0.000 C 
BRANCH  24  25
ATOM     25  O   UNL     1     -45.859 -10.784 -31.014  0.00  0.00    +0.000 OA
ATOM     26  H   UNL     1     -45.237 -10.053 -30.872  0.00  0.00    +0.000 HD
ENDBRANCH  24  25
BRANCH  24  27
ATOM     27  C   UNL     1     -45.898 -11.807 -28.843  0.00  0.00    +0.000 C 
BRANCH  27  28
ATOM     28  O   UNL     1     -44.658 -12.195 -29.357  0.00  0.00    +0.000 OA
ATOM     29  H   UNL     1     -44.349 -12.988 -28.892  0.00  0.00    +0.000 HD
ENDBRANCH  27  28
BRANCH  27  30
ATOM     30  C   UNL     1     -46.704 -13.050 -28.496  0.00  0.00    +0.000 C 
BRANCH  30  31
ATOM     31  O   UNL     1     -47.756 -12.711 -27.646  0.00  0.00    +0.000 OA
ATOM     32  H   UNL     1     -47.649 -13.171 -26.799  0.00  0.00    +0.000 HD
ENDBRANCH  30  31
ENDBRANCH  27  30
ENDBRANCH  24  27
ENDBRANCH  21  24
ENDBRANCH  20  21
ENDBRANCH   9  20
TORSDOF 9
ENDMDL
MODEL 3
REMARK VINA RESULT:      -6.0      9.535     12.581
REMARK  Name = ZINC000003831423 ZINC03831423 PubChem-7048776
REMARK  9 active torsions:
REMARK  status: ('A' for Active; 'I' for Inactive)
REMARK    1  A    between atoms: N_9  and  C_20
REMARK    2  A    between atoms: C_20  and  C_21
REMARK    3  A    between atoms: C_21  and  O_22
REMARK    4  A    between atoms: C_21  and  C_24
REMARK    5  A    between atoms: C_24  and  O_25
REMARK    6  A    between atoms: C_24  and  C_27
REMARK    7  A    between atoms: C_27  and  O_28
REMARK    8  A    between atoms: C_27  and  C_30
REMARK    9  A    between atoms: C_30  and  O_31
REMARK                            x       y       z     vdW  Elec       q    Type
REMARK                         _______ _______ _______ _____ _____    ______ ____
ROOT
ATOM      1  C   UNL     1     -47.611  -2.369 -24.235  0.00  0.00    +0.000 C 
ATOM      2  C   UNL     1     -47.313  -3.557 -25.084  0.00  0.00    +0.000 A 
ATOM      3  C   UNL     1     -47.424  -3.436 -26.471  0.00  0.00    +0.000 A 
ATOM      4  C   UNL     1     -47.154  -4.523 -27.305  0.00  0.00    +0.000 A 
ATOM      5  C   UNL     1     -46.760  -5.769 -26.746  0.00  0.00    +0.000 A 
ATOM      6  C   UNL     1     -46.654  -5.877 -25.348  0.00  0.00    +0.000 A 
ATOM      7  C   UNL     1     -46.926  -4.786 -24.520  0.00  0.00    +0.000 A 
ATOM      8  C   UNL     1     -46.795  -4.959 -23.044  0.00  0.00    +0.000 C 
ATOM      9  N   UNL     1     -46.490  -6.841 -27.563  0.00  0.00    +0.000 N 
ATOM     10  C   UNL     1     -46.607  -6.709 -28.917  0.00  0.00    +0.000 A 
ATOM     11  N   UNL     1     -46.357  -7.742 -29.764  0.00  0.00    +0.000 NA
ATOM     12  C   UNL     1     -46.478  -7.588 -31.110  0.00  0.00    +0.000 A 
ATOM     13  O   UNL     1     -46.240  -8.561 -31.872  0.00  0.00    +0.000 OA
ATOM     14  N   UNL     1     -46.853  -6.392 -31.642  0.00  0.00    +0.000 N 
ATOM     15  C   UNL     1     -47.123  -5.308 -30.867  0.00  0.00    +0.000 A 
ATOM     16  O   UNL     1     -47.469  -4.223 -31.405  0.00  0.00    +0.000 OA
ATOM     17  C   UNL     1     -47.016  -5.413 -29.481  0.00  0.00    +0.000 A 
ATOM     18  N   UNL     1     -47.271  -4.376 -28.649  0.00  0.00    +0.000 NA
ATOM     19  H   UNL     1     -46.933  -6.308 -32.620  0.00  0.00    +0.000 HD
ENDROOT
BRANCH   9  20
ATOM     20  C   UNL     1     -46.068  -8.127 -27.000  0.00  0.00    +0.000 C 
BRANCH  20  21
ATOM     21  C   UNL     1     -47.261  -9.059 -26.838  0.00  0.00    +0.000 C 
BRANCH  21  22
ATOM     22  O   UNL     1     -47.550  -9.245 -25.483  0.00  0.00    +0.000 OA
ATOM     23  H   UNL     1     -47.490  -8.394 -25.020  0.00  0.00    +0.000 HD
ENDBRANCH  21  22
BRANCH  21  24
ATOM     24  C   UNL     1     -46.984 -10.398 -27.520  0.00  0.00    +0.000 C 
BRANCH  24  25
ATOM     25  O   UNL     1     -46.004 -10.243 -28.505  0.00  0.00    +0.000 OA
ATOM     26  H   UNL     1     -45.281 -10.870 -28.344  0.00  0.00    +0.000 HD
ENDBRANCH  24  25
BRANCH  24  27
ATOM     27  C   UNL     1     -46.552 -11.454 -26.507  0.00  0.00    +0.000 C 
BRANCH  27  28
ATOM     28  O   UNL     1     -45.204 -11.281 -26.185  0.00  0.00    +0.000 OA
ATOM     29  H   UNL     1     -45.132 -10.797 -25.347  0.00  0.00    +0.000 HD
ENDBRANCH  27  28
BRANCH  27  30
ATOM     30  C   UNL     1     -46.753 -12.850 -27.078  0.00  0.00    +0.000 C 
BRANCH  30  31
ATOM     31  O   UNL     1     -47.755 -12.825 -28.048  0.00  0.00    +0.000 OA
ATOM     32  H   UNL     1     -48.239 -13.666 -28.034  0.00  0.00    +0.000 HD
ENDBRANCH  30  31
ENDBRANCH  27  30
ENDBRANCH  24  27
ENDBRANCH  21  24
ENDBRANCH  20  21
ENDBRANCH   9  20
TORSDOF 9
ENDMDL
