MODEL 1
REMARK VINA RESULT:      -6.2      0.000      0.000
REMARK  Name = ZINC000023755315 ZINC23755315 CSC028219200 MCULE-8163591876 MolPort-009-162-197 PubChem-31343882
REMARK  2 active torsions:
REMARK  status: ('A' for Active; 'I' for Inactive)
REMARK    1  A    between atoms: C_1  and  C_12
REMARK    2  A    between atoms: N_3  and  C_16
REMARK                            x       y       z     vdW  Elec       q    Type
REMARK                         _______ _______ _______ _____ _____    ______ ____
ROOT
ATOM      1  C   UNL     1     -45.363 -18.831 -24.865  0.00  0.00    +0.000 C 
ATOM      2  O   UNL     1     -46.256 -19.598 -25.312  0.00  0.00    +0.000 OA
ATOM      3  N   UNL     1     -44.835 -17.814 -25.729  0.00  0.00    +0.000 N 
ATOM      4  H   UNL     1     -44.742 -18.042 -26.683  0.00  0.00    +0.000 HD
ENDROOT
BRANCH   1  12
ATOM      5  C   UNL     1     -42.338 -20.187 -19.111  0.00  0.00    +0.000 C 
ATOM      6  N   UNL     1     -43.483 -19.502 -19.685  0.00  0.00    +0.000 N 
ATOM      7  N   UNL     1     -44.389 -18.834 -18.979  0.00  0.00    +0.000 NA
ATOM      8  C   UNL     1     -45.301 -18.333 -19.849  0.00  0.00    +0.000 A 
ATOM      9  C   UNL     1     -46.484 -17.521 -19.452  0.00  0.00    +0.000 C 
ATOM     10  C   UNL     1     -44.949 -18.701 -21.131  0.00  0.00    +0.000 A 
ATOM     11  C   UNL     1     -45.507 -18.472 -22.381  0.00  0.00    +0.000 A 
ATOM     12  C   UNL     1     -44.849 -19.040 -23.495  0.00  0.00    +0.000 A 
ATOM     13  C   UNL     1     -43.656 -19.782 -23.292  0.00  0.00    +0.000 A 
ATOM     14  N   UNL     1     -43.150 -19.973 -22.035  0.00  0.00    +0.000 NA
ATOM     15  C   UNL     1     -43.811 -19.429 -20.983  0.00  0.00    +0.000 A 
ENDBRANCH   1  12
BRANCH   3  16
ATOM     16  C   UNL     1     -44.431 -16.497 -25.330  0.00  0.00    +0.000 A 
ATOM     17  C   UNL     1     -45.386 -15.525 -24.987  0.00  0.00    +0.000 A 
ATOM     18  C   UNL     1     -44.981 -14.240 -24.621  0.00  0.00    +0.000 A 
ATOM     19  C   UNL     1     -43.622 -13.904 -24.631  0.00  0.00    +0.000 A 
ATOM     20  O   UNL     1     -43.242 -12.601 -24.298  0.00  0.00    +0.000 OA
ATOM     21  C   UNL     1     -44.210 -11.551 -24.228  0.00  0.00    +0.000 C 
ATOM     22  C   UNL     1     -45.507 -12.067 -23.599  0.00  0.00    +0.000 C 
ATOM     23  O   UNL     1     -45.919 -13.277 -24.238  0.00  0.00    +0.000 OA
ATOM     24  C   UNL     1     -42.666 -14.861 -24.975  0.00  0.00    +0.000 A 
ATOM     25  C   UNL     1     -43.066 -16.155 -25.328  0.00  0.00    +0.000 A 
ATOM     26 BR   UNL     1     -41.724 -17.432 -25.799  0.00  0.00    +0.000 Br
ENDBRANCH   3  16
TORSDOF 2
ENDMDL
MODEL 2
REMARK VINA RESULT:      -5.9      1.753      2.622
REMARK  Name = ZINC000023755315 ZINC23755315 CSC028219200 MCULE-8163591876 MolPort-009-162-197 PubChem-31343882
REMARK  2 active torsions:
REMARK  status: ('A' for Active; 'I' for Inactive)
REMARK    1  A    between atoms: C_1  and  C_12
REMARK    2  A    between atoms: N_3  and  C_16
REMARK                            x       y       z     vdW  Elec       q    Type
REMARK                         _______ _______ _______ _____ _____    ______ ____
ROOT
ATOM      1  C   UNL     1     -45.466 -18.627 -24.747  0.00  0.00    +0.000 C 
ATOM      2  O   UNL     1     -46.594 -19.085 -25.070  0.00  0.00    +0.000 OA
ATOM      3  N   UNL     1     -44.706 -17.914 -25.734  0.00  0.00    +0.000 N 
ATOM      4  H   UNL     1     -44.770 -18.232 -26.663  0.00  0.00    +0.000 HD
ENDROOT
BRANCH   1  12
ATOM      5  C   UNL     1     -42.425 -20.264 -19.075  0.00  0.00    +0.000 C 
ATOM      6  N   UNL     1     -43.531 -19.493 -19.616  0.00  0.00    +0.000 N 
ATOM      7  N   UNL     1     -44.373 -18.772 -18.883  0.00  0.00    +0.000 NA
ATOM      8  C   UNL     1     -45.266 -18.197 -19.729  0.00  0.00    +0.000 A 
ATOM      9  C   UNL     1     -46.379 -17.310 -19.297  0.00  0.00    +0.000 C 
ATOM     10  C   UNL     1     -44.966 -18.574 -21.021  0.00  0.00    +0.000 A 
ATOM     11  C   UNL     1     -45.532 -18.290 -22.257  0.00  0.00    +0.000 A 
ATOM     12  C   UNL     1     -44.939 -18.889 -23.390  0.00  0.00    +0.000 A 
ATOM     13  C   UNL     1     -43.797 -19.715 -23.221  0.00  0.00    +0.000 A 
ATOM     14  N   UNL     1     -43.280 -19.956 -21.978  0.00  0.00    +0.000 NA
ATOM     15  C   UNL     1     -43.880 -19.381 -20.906  0.00  0.00    +0.000 A 
ENDBRANCH   1  12
BRANCH   3  16
ATOM     16  C   UNL     1     -43.863 -16.779 -25.488  0.00  0.00    +0.000 A 
ATOM     17  C   UNL     1     -42.468 -16.878 -25.617  0.00  0.00    +0.000 A 
ATOM     18  C   UNL     1     -41.657 -15.773 -25.354  0.00  0.00    +0.000 A 
ATOM     19  C   UNL     1     -42.230 -14.570 -24.923  0.00  0.00    +0.000 A 
ATOM     20  O   UNL     1     -41.396 -13.488 -24.629  0.00  0.00    +0.000 OA
ATOM     21  C   UNL     1     -39.985 -13.668 -24.486  0.00  0.00    +0.000 C 
ATOM     22  C   UNL     1     -39.470 -14.665 -25.527  0.00  0.00    +0.000 C 
ATOM     23  O   UNL     1     -40.271 -15.848 -25.518  0.00  0.00    +0.000 OA
ATOM     24  C   UNL     1     -43.615 -14.463 -24.787  0.00  0.00    +0.000 A 
ATOM     25  C   UNL     1     -44.433 -15.564 -25.064  0.00  0.00    +0.000 A 
ATOM     26 BR   UNL     1     -46.324 -15.375 -24.858  0.00  0.00    +0.000 Br
ENDBRANCH   3  16
TORSDOF 2
ENDMDL
MODEL 3
REMARK VINA RESULT:      -5.7     12.351     15.682
REMARK  Name = ZINC000023755315 ZINC23755315 CSC028219200 MCULE-8163591876 MolPort-009-162-197 PubChem-31343882
REMARK  2 active torsions:
REMARK  status: ('A' for Active; 'I' for Inactive)
REMARK    1  A    between atoms: C_1  and  C_12
REMARK    2  A    between atoms: N_3  and  C_16
REMARK                            x       y       z     vdW  Elec       q    Type
REMARK                         _______ _______ _______ _____ _____    ______ ____
ROOT
ATOM      1  C   UNL     1     -46.104  -6.514 -33.819  0.00  0.00    +0.000 C 
ATOM      2  O   UNL     1     -45.923  -7.169 -34.879  0.00  0.00    +0.000 OA
ATOM      3  N   UNL     1     -47.074  -6.991 -32.874  0.00  0.00    +0.000 N 
ATOM      4  H   UNL     1     -47.884  -7.414 -33.241  0.00  0.00    +0.000 HD
ENDROOT
BRANCH   1  12
ATOM      5  C   UNL     1     -43.587  -0.427 -32.976  0.00  0.00    +0.000 C 
ATOM      6  N   UNL     1     -43.240  -1.837 -32.958  0.00  0.00    +0.000 N 
ATOM      7  N   UNL     1     -42.024  -2.307 -32.699  0.00  0.00    +0.000 NA
ATOM      8  C   UNL     1     -42.083  -3.661 -32.772  0.00  0.00    +0.000 A 
ATOM      9  C   UNL     1     -40.922  -4.565 -32.548  0.00  0.00    +0.000 C 
ATOM     10  C   UNL     1     -43.372  -4.038 -33.085  0.00  0.00    +0.000 A 
ATOM     11  C   UNL     1     -43.990  -5.266 -33.281  0.00  0.00    +0.000 A 
ATOM     12  C   UNL     1     -45.363  -5.252 -33.612  0.00  0.00    +0.000 A 
ATOM     13  C   UNL     1     -46.042  -4.008 -33.700  0.00  0.00    +0.000 A 
ATOM     14  N   UNL     1     -45.382  -2.828 -33.494  0.00  0.00    +0.000 NA
ATOM     15  C   UNL     1     -44.060  -2.872 -33.193  0.00  0.00    +0.000 A 
ENDBRANCH   1  12
BRANCH   3  16
ATOM     16  C   UNL     1     -46.968  -6.908 -31.446  0.00  0.00    +0.000 A 
ATOM     17  C   UNL     1     -47.223  -5.700 -30.776  0.00  0.00    +0.000 A 
ATOM     18  C   UNL     1     -47.095  -5.627 -29.388  0.00  0.00    +0.000 A 
ATOM     19  C   UNL     1     -46.676  -6.748 -28.661  0.00  0.00    +0.000 A 
ATOM     20  O   UNL     1     -46.518  -6.641 -27.277  0.00  0.00    +0.000 OA
ATOM     21  C   UNL     1     -46.499  -5.361 -26.639  0.00  0.00    +0.000 C 
ATOM     22  C   UNL     1     -47.531  -4.432 -27.284  0.00  0.00    +0.000 C 
ATOM     23  O   UNL     1     -47.385  -4.442 -28.705  0.00  0.00    +0.000 OA
ATOM     24  C   UNL     1     -46.416  -7.951 -29.319  0.00  0.00    +0.000 A 
ATOM     25  C   UNL     1     -46.557  -8.034 -30.709  0.00  0.00    +0.000 A 
ATOM     26 BR   UNL     1     -46.184  -9.699 -31.570  0.00  0.00    +0.000 Br
ENDBRANCH   3  16
TORSDOF 2
ENDMDL
