MODEL 1
REMARK VINA RESULT:      -6.2      0.000      0.000
REMARK  Name = ZINC000096114852
REMARK  11 active torsions:
REMARK  status: ('A' for Active; 'I' for Inactive)
REMARK    1  A    between atoms: C_1  and  C_28
REMARK    2  A    between atoms: C_2  and  O_3
REMARK    3  A    between atoms: C_5  and  O_6
REMARK    4  A    between atoms: C_10  and  O_11
REMARK    5  A    between atoms: C_12  and  C_18
REMARK    6  A    between atoms: C_21  and  O_22
REMARK    7  A    between atoms: C_23  and  O_24
REMARK    8  A    between atoms: C_28  and  C_29
REMARK    9  A    between atoms: C_28  and  C_36
REMARK   10  A    between atoms: C_36  and  C_37
REMARK   11  A    between atoms: C_37  and  O_40
REMARK                            x       y       z     vdW  Elec       q    Type
REMARK                         _______ _______ _______ _____ _____    ______ ____
ROOT
ATOM      1  C   UNL     1     -44.560 -17.650 -21.312  0.00  0.00    +0.000 A 
ATOM      2  C   UNL     1     -44.280 -18.890 -21.908  0.00  0.00    +0.000 A 
ATOM      3  C   UNL     1     -44.494 -19.085 -23.270  0.00  0.00    +0.000 A 
ATOM      4  C   UNL     1     -44.987 -18.056 -24.070  0.00  0.00    +0.000 A 
ATOM      5  C   UNL     1     -45.264 -16.793 -23.502  0.00  0.00    +0.000 A 
ATOM      6  C   UNL     1     -45.740 -15.703 -24.259  0.00  0.00    +0.000 A 
ATOM      7  O   UNL     1     -45.951 -15.810 -25.498  0.00  0.00    +0.000 OA
ATOM      8  C   UNL     1     -45.971 -14.474 -23.634  0.00  0.00    +0.000 A 
ATOM      9  C   UNL     1     -45.723 -14.348 -22.251  0.00  0.00    +0.000 A 
ATOM     10  O   UNL     1     -45.274 -15.401 -21.574  0.00  0.00    +0.000 OA
ATOM     11  C   UNL     1     -45.043 -16.592 -22.117  0.00  0.00    +0.000 A 
ENDROOT
BRANCH   9  12
ATOM     12  C   UNL     1     -45.932 -13.082 -21.501  0.00  0.00    +0.000 A 
ATOM     13  C   UNL     1     -46.961 -13.015 -20.549  0.00  0.00    +0.000 A 
ATOM     14  C   UNL     1     -47.203 -11.835 -19.841  0.00  0.00    +0.000 A 
ATOM     15  C   UNL     1     -46.422 -10.702 -20.079  0.00  0.00    +0.000 A 
ATOM     16  C   UNL     1     -45.395 -10.751 -21.029  0.00  0.00    +0.000 A 
ATOM     17  C   UNL     1     -45.156 -11.935 -21.735  0.00  0.00    +0.000 A 
BRANCH  15  18
ATOM     18  O   UNL     1     -46.673  -9.532 -19.375  0.00  0.00    +0.000 OA
ATOM     19  H   UNL     1     -46.650  -8.705 -19.815  0.00  0.00    +0.000 HD
ENDBRANCH  15  18
BRANCH  16  20
ATOM     20  O   UNL     1     -44.616  -9.630 -21.282  0.00  0.00    +0.000 OA
ATOM     21  H   UNL     1     -43.982  -9.647 -21.973  0.00  0.00    +0.000 HD
ENDBRANCH  16  20
ENDBRANCH   9  12
BRANCH   8  22
ATOM     22  O   UNL     1     -46.422 -13.397 -24.393  0.00  0.00    +0.000 OA
ATOM     23  H   UNL     1     -47.251 -13.005 -24.204  0.00  0.00    +0.000 HD
ENDBRANCH   8  22
BRANCH   4  24
ATOM     24  O   UNL     1     -45.189 -18.309 -25.422  0.00  0.00    +0.000 OA
ATOM     25  H   UNL     1     -44.643 -17.895 -26.063  0.00  0.00    +0.000 HD
ENDBRANCH   4  24
BRANCH   2  26
ATOM     26  O   UNL     1     -43.791 -19.946 -21.146  0.00  0.00    +0.000 OA
ATOM     27  H   UNL     1     -43.477 -19.791 -20.277  0.00  0.00    +0.000 HD
ENDBRANCH   2  26
BRANCH   1  28
ATOM     28  C   UNL     1     -44.339 -17.507 -19.826  0.00  0.00    +0.000 C 
BRANCH  28  29
ATOM     29  C   UNL     1     -45.425 -16.755 -19.108  0.00  0.00    +0.000 A 
ATOM     30  C   UNL     1     -45.069 -15.584 -18.427  0.00  0.00    +0.000 A 
ATOM     31  C   UNL     1     -46.029 -14.840 -17.738  0.00  0.00    +0.000 A 
ATOM     32  C   UNL     1     -47.360 -15.263 -17.726  0.00  0.00    +0.000 A 
ATOM     33  C   UNL     1     -47.728 -16.431 -18.398  0.00  0.00    +0.000 A 
ATOM     34  C   UNL     1     -46.769 -17.180 -19.086  0.00  0.00    +0.000 A 
ATOM     35  F   UNL     1     -47.163 -18.296 -19.744  0.00  0.00    +0.000 F 
ENDBRANCH  28  29
BRANCH  28  36
ATOM     36  C   UNL     1     -42.915 -17.153 -19.401  0.00  0.00    +0.000 C 
BRANCH  36  37
ATOM     37  C   UNL     1     -42.397 -18.164 -18.430  0.00  0.00    +0.000 C 
ATOM     38  O   UNL     1     -42.259 -17.838 -17.221  0.00  0.00    +0.000 OA
BRANCH  37  40
ATOM     39  C   UNL     1     -40.752 -19.766 -19.345  0.00  0.00    +0.000 C 
ATOM     40  O   UNL     1     -42.039 -19.453 -18.833  0.00  0.00    +0.000 OA
ENDBRANCH  37  40
ENDBRANCH  36  37
ENDBRANCH  28  36
ENDBRANCH   1  28
TORSDOF 11
ENDMDL
MODEL 2
REMARK VINA RESULT:      -6.2      9.347     13.450
REMARK  Name = ZINC000096114852
REMARK  11 active torsions:
REMARK  status: ('A' for Active; 'I' for Inactive)
REMARK    1  A    between atoms: C_1  and  C_28
REMARK    2  A    between atoms: C_2  and  O_3
REMARK    3  A    between atoms: C_5  and  O_6
REMARK    4  A    between atoms: C_10  and  O_11
REMARK    5  A    between atoms: C_12  and  C_18
REMARK    6  A    between atoms: C_21  and  O_22
REMARK    7  A    between atoms: C_23  and  O_24
REMARK    8  A    between atoms: C_28  and  C_29
REMARK    9  A    between atoms: C_28  and  C_36
REMARK   10  A    between atoms: C_36  and  C_37
REMARK   11  A    between atoms: C_37  and  O_40
REMARK                            x       y       z     vdW  Elec       q    Type
REMARK                         _______ _______ _______ _____ _____    ______ ____
ROOT
ATOM      1  C   UNL     1     -46.086  -5.638 -30.321  0.00  0.00    +0.000 A 
ATOM      2  C   UNL     1     -46.312  -4.502 -31.116  0.00  0.00    +0.000 A 
ATOM      3  C   UNL     1     -46.547  -4.631 -32.483  0.00  0.00    +0.000 A 
ATOM      4  C   UNL     1     -46.565  -5.885 -33.089  0.00  0.00    +0.000 A 
ATOM      5  C   UNL     1     -46.356  -7.046 -32.313  0.00  0.00    +0.000 A 
ATOM      6  C   UNL     1     -46.387  -8.346 -32.859  0.00  0.00    +0.000 A 
ATOM      7  O   UNL     1     -46.599  -8.533 -34.089  0.00  0.00    +0.000 OA
ATOM      8  C   UNL     1     -46.194  -9.452 -32.026  0.00  0.00    +0.000 A 
ATOM      9  C   UNL     1     -45.970  -9.246 -30.649  0.00  0.00    +0.000 A 
ATOM     10  O   UNL     1     -45.949  -8.003 -30.175  0.00  0.00    +0.000 OA
ATOM     11  C   UNL     1     -46.121  -6.917 -30.922  0.00  0.00    +0.000 A 
ENDROOT
BRANCH   9  12
ATOM     12  C   UNL     1     -45.761 -10.357 -29.685  0.00  0.00    +0.000 A 
ATOM     13  C   UNL     1     -44.450 -10.724 -29.341  0.00  0.00    +0.000 A 
ATOM     14  C   UNL     1     -44.214 -11.779 -28.455  0.00  0.00    +0.000 A 
ATOM     15  C   UNL     1     -45.285 -12.487 -27.906  0.00  0.00    +0.000 A 
ATOM     16  C   UNL     1     -46.598 -12.136 -28.244  0.00  0.00    +0.000 A 
ATOM     17  C   UNL     1     -46.830 -11.079 -29.130  0.00  0.00    +0.000 A 
BRANCH  15  18
ATOM     18  O   UNL     1     -45.041 -13.538 -27.032  0.00  0.00    +0.000 OA
ATOM     19  H   UNL     1     -44.291 -13.516 -26.471  0.00  0.00    +0.000 HD
ENDBRANCH  15  18
BRANCH  16  20
ATOM     20  O   UNL     1     -47.672 -12.837 -27.713  0.00  0.00    +0.000 OA
ATOM     21  H   UNL     1     -48.057 -12.562 -26.903  0.00  0.00    +0.000 HD
ENDBRANCH  16  20
ENDBRANCH   9  12
BRANCH   8  22
ATOM     22  O   UNL     1     -46.246 -10.733 -32.571  0.00  0.00    +0.000 OA
ATOM     23  H   UNL     1     -45.886 -11.458 -32.099  0.00  0.00    +0.000 HD
ENDBRANCH   8  22
BRANCH   4  24
ATOM     24  O   UNL     1     -46.797  -5.954 -34.459  0.00  0.00    +0.000 OA
ATOM     25  H   UNL     1     -46.109  -5.746 -35.061  0.00  0.00    +0.000 HD
ENDBRANCH   4  24
BRANCH   2  26
ATOM     26  O   UNL     1     -46.297  -3.230 -30.553  0.00  0.00    +0.000 OA
ATOM     27  H   UNL     1     -45.902  -2.517 -31.015  0.00  0.00    +0.000 HD
ENDBRANCH   2  26
BRANCH   1  28
ATOM     28  C   UNL     1     -45.804  -5.435 -28.852  0.00  0.00    +0.000 C 
BRANCH  28  29
ATOM     29  C   UNL     1     -44.566  -6.129 -28.357  0.00  0.00    +0.000 A 
ATOM     30  C   UNL     1     -44.691  -6.976 -27.249  0.00  0.00    +0.000 A 
ATOM     31  C   UNL     1     -43.580  -7.649 -26.737  0.00  0.00    +0.000 A 
ATOM     32  C   UNL     1     -42.329  -7.481 -27.335  0.00  0.00    +0.000 A 
ATOM     33  C   UNL     1     -42.190  -6.636 -28.439  0.00  0.00    +0.000 A 
ATOM     34  C   UNL     1     -43.299  -5.958 -28.952  0.00  0.00    +0.000 A 
ATOM     35  F   UNL     1     -43.134  -5.163 -30.035  0.00  0.00    +0.000 F 
ENDBRANCH  28  29
BRANCH  28  36
ATOM     36  C   UNL     1     -47.016  -5.533 -27.928  0.00  0.00    +0.000 C 
BRANCH  36  37
ATOM     37  C   UNL     1     -47.174  -4.270 -27.143  0.00  0.00    +0.000 C 
ATOM     38  O   UNL     1     -47.376  -3.189 -27.756  0.00  0.00    +0.000 OA
BRANCH  37  40
ATOM     39  C   UNL     1     -47.175  -5.435 -24.963  0.00  0.00    +0.000 C 
ATOM     40  O   UNL     1     -47.079  -4.256 -25.749  0.00  0.00    +0.000 OA
ENDBRANCH  37  40
ENDBRANCH  36  37
ENDBRANCH  28  36
ENDBRANCH   1  28
TORSDOF 11
ENDMDL
MODEL 3
REMARK VINA RESULT:      -6.2      9.567     13.016
REMARK  Name = ZINC000096114852
REMARK  11 active torsions:
REMARK  status: ('A' for Active; 'I' for Inactive)
REMARK    1  A    between atoms: C_1  and  C_28
REMARK    2  A    between atoms: C_2  and  O_3
REMARK    3  A    between atoms: C_5  and  O_6
REMARK    4  A    between atoms: C_10  and  O_11
REMARK    5  A    between atoms: C_12  and  C_18
REMARK    6  A    between atoms: C_21  and  O_22
REMARK    7  A    between atoms: C_23  and  O_24
REMARK    8  A    between atoms: C_28  and  C_29
REMARK    9  A    between atoms: C_28  and  C_36
REMARK   10  A    between atoms: C_36  and  C_37
REMARK   11  A    between atoms: C_37  and  O_40
REMARK                            x       y       z     vdW  Elec       q    Type
REMARK                         _______ _______ _______ _____ _____    ______ ____
ROOT
ATOM      1  C   UNL     1     -45.804 -10.988 -30.600  0.00  0.00    +0.000 A 
ATOM      2  C   UNL     1     -46.179 -12.271 -30.166  0.00  0.00    +0.000 A 
ATOM      3  C   UNL     1     -46.797 -12.445 -28.930  0.00  0.00    +0.000 A 
ATOM      4  C   UNL     1     -47.059 -11.356 -28.102  0.00  0.00    +0.000 A 
ATOM      5  C   UNL     1     -46.707 -10.054 -28.518  0.00  0.00    +0.000 A 
ATOM      6  C   UNL     1     -46.965  -8.907 -27.739  0.00  0.00    +0.000 A 
ATOM      7  O   UNL     1     -47.526  -8.995 -26.613  0.00  0.00    +0.000 OA
ATOM      8  C   UNL     1     -46.608  -7.645 -28.224  0.00  0.00    +0.000 A 
ATOM      9  C   UNL     1     -45.993  -7.543 -29.489  0.00  0.00    +0.000 A 
ATOM     10  O   UNL     1     -45.768  -8.651 -30.192  0.00  0.00    +0.000 OA
ATOM     11  C   UNL     1     -46.081  -9.873 -29.776  0.00  0.00    +0.000 A 
ENDROOT
BRANCH   9  12
ATOM     12  C   UNL     1     -45.585  -6.248 -30.091  0.00  0.00    +0.000 A 
ATOM     13  C   UNL     1     -44.226  -6.016 -30.354  0.00  0.00    +0.000 A 
ATOM     14  C   UNL     1     -43.801  -4.800 -30.899  0.00  0.00    +0.000 A 
ATOM     15  C   UNL     1     -44.730  -3.797 -31.182  0.00  0.00    +0.000 A 
ATOM     16  C   UNL     1     -46.089  -4.011 -30.921  0.00  0.00    +0.000 A 
ATOM     17  C   UNL     1     -46.509  -5.229 -30.377  0.00  0.00    +0.000 A 
BRANCH  15  18
ATOM     18  O   UNL     1     -44.299  -2.590 -31.718  0.00  0.00    +0.000 OA
ATOM     19  H   UNL     1     -43.608  -2.578 -32.351  0.00  0.00    +0.000 HD
ENDBRANCH  15  18
BRANCH  16  20
ATOM     20  O   UNL     1     -47.022  -3.019 -31.189  0.00  0.00    +0.000 OA
ATOM     21  H   UNL     1     -47.922  -3.246 -31.321  0.00  0.00    +0.000 HD
ENDBRANCH  16  20
ENDBRANCH   9  12
BRANCH   8  22
ATOM     22  O   UNL     1     -46.887  -6.516 -27.457  0.00  0.00    +0.000 OA
ATOM     23  H   UNL     1     -47.618  -5.972 -27.673  0.00  0.00    +0.000 HD
ENDBRANCH   8  22
BRANCH   4  24
ATOM     24  O   UNL     1     -47.672 -11.591 -26.875  0.00  0.00    +0.000 OA
ATOM     25  H   UNL     1     -48.511 -12.007 -26.843  0.00  0.00    +0.000 HD
ENDBRANCH   4  24
BRANCH   2  26
ATOM     26  O   UNL     1     -45.933 -13.386 -30.959  0.00  0.00    +0.000 OA
ATOM     27  H   UNL     1     -46.245 -13.411 -31.842  0.00  0.00    +0.000 HD
ENDBRANCH   2  26
BRANCH   1  28
ATOM     28  C   UNL     1     -45.107 -10.863 -31.933  0.00  0.00    +0.000 C 
BRANCH  28  29
ATOM     29  C   UNL     1     -43.704 -10.330 -31.852  0.00  0.00    +0.000 A 
ATOM     30  C   UNL     1     -43.439  -9.094 -32.455  0.00  0.00    +0.000 A 
ATOM     31  C   UNL     1     -42.156  -8.544 -32.417  0.00  0.00    +0.000 A 
ATOM     32  C   UNL     1     -41.124  -9.228 -31.771  0.00  0.00    +0.000 A 
ATOM     33  C   UNL     1     -41.374 -10.463 -31.169  0.00  0.00    +0.000 A 
ATOM     34  C   UNL     1     -42.657 -11.019 -31.207  0.00  0.00    +0.000 A 
ATOM     35  F   UNL     1     -42.870 -12.208 -30.596  0.00  0.00    +0.000 F 
ENDBRANCH  28  29
BRANCH  28  36
ATOM     36  C   UNL     1     -45.954 -10.291 -33.069  0.00  0.00    +0.000 C 
BRANCH  36  37
ATOM     37  C   UNL     1     -45.985 -11.241 -34.223  0.00  0.00    +0.000 C 
ATOM     38  O   UNL     1     -46.163 -12.468 -34.001  0.00  0.00    +0.000 OA
BRANCH  37  40
ATOM     39  C   UNL     1     -46.875 -10.630 -36.446  0.00  0.00    +0.000 C 
ATOM     40  O   UNL     1     -45.798 -10.805 -35.537  0.00  0.00    +0.000 OA
ENDBRANCH  37  40
ENDBRANCH  36  37
ENDBRANCH  28  36
ENDBRANCH   1  28
TORSDOF 11
ENDMDL
