MODEL 1
REMARK VINA RESULT:      -8.0      0.000      0.000
REMARK  Name = ZINC000064971506 ZINC64971506 ChemDiv-G741-1139 MCULE-4305964791 MolPort-010-846-948 PubChem-53091021
REMARK  5 active torsions:
REMARK  status: ('A' for Active; 'I' for Inactive)
REMARK    1  A    between atoms: N_1  and  C_20
REMARK    2  A    between atoms: N_8  and  C_23
REMARK    3  A    between atoms: C_23  and  C_24
REMARK    4  A    between atoms: N_26  and  C_28
REMARK    5  A    between atoms: C_28  and  C_29
REMARK                            x       y       z     vdW  Elec       q    Type
REMARK                         _______ _______ _______ _____ _____    ______ ____
ROOT
ATOM      1  N   UNL     1     -46.413  -7.074 -26.534  0.00  0.00    +0.000 N 
ATOM      2  C   UNL     1     -46.082  -7.569 -27.839  0.00  0.00    +0.000 C 
ATOM      3  O   UNL     1     -46.005  -6.776 -28.816  0.00  0.00    +0.000 OA
ATOM      4  N   UNL     1     -45.870  -8.985 -28.032  0.00  0.00    +0.000 N 
ATOM      5  C   UNL     1     -46.114  -9.865 -26.885  0.00  0.00    +0.000 C 
ATOM      6  C   UNL     1     -46.618 -11.203 -27.319  0.00  0.00    +0.000 C 
ATOM      7  O   UNL     1     -47.370 -11.858 -26.551  0.00  0.00    +0.000 OA
ATOM      8  N   UNL     1     -46.187 -11.762 -28.568  0.00  0.00    +0.000 N 
ATOM      9  C   UNL     1     -45.491 -10.925 -29.515  0.00  0.00    +0.000 A 
ATOM     10  C   UNL     1     -45.334  -9.546 -29.254  0.00  0.00    +0.000 A 
ATOM     11  C   UNL     1     -44.641  -8.750 -30.181  0.00  0.00    +0.000 A 
ATOM     12  C   UNL     1     -44.126  -9.302 -31.354  0.00  0.00    +0.000 A 
ATOM     13  C   UNL     1     -44.295 -10.659 -31.617  0.00  0.00    +0.000 A 
ATOM     14  C   UNL     1     -44.974 -11.467 -30.703  0.00  0.00    +0.000 A 
ATOM     15  H   UNL     1     -46.411  -7.731 -25.802  0.00  0.00    +0.000 HD
ENDROOT
BRANCH   1  20
ATOM     16  C   UNL     1     -47.737  -1.655 -25.239  0.00  0.00    +0.000 C 
ATOM     17  C   UNL     1     -47.394  -3.065 -25.564  0.00  0.00    +0.000 A 
ATOM     18  C   UNL     1     -47.334  -3.479 -26.897  0.00  0.00    +0.000 A 
ATOM     19  C   UNL     1     -47.011  -4.805 -27.202  0.00  0.00    +0.000 A 
ATOM     20  C   UNL     1     -46.747  -5.723 -26.178  0.00  0.00    +0.000 A 
ATOM     21  C   UNL     1     -46.802  -5.299 -24.844  0.00  0.00    +0.000 A 
ATOM     22  C   UNL     1     -47.124  -3.973 -24.536  0.00  0.00    +0.000 A 
ENDBRANCH   1  20
BRANCH   8  23
ATOM     23  C   UNL     1     -46.386 -13.191 -28.813  0.00  0.00    +0.000 C 
BRANCH  23  24
ATOM     24  C   UNL     1     -45.349 -13.996 -28.099  0.00  0.00    +0.000 C 
ATOM     25  O   UNL     1     -44.207 -14.130 -28.615  0.00  0.00    +0.000 OA
ATOM     26  N   UNL     1     -45.655 -14.608 -26.843  0.00  0.00    +0.000 N 
ATOM     27  H   UNL     1     -46.599 -14.680 -26.570  0.00  0.00    +0.000 HD
BRANCH  26  28
ATOM     28  C   UNL     1     -44.631 -15.132 -25.948  0.00  0.00    +0.000 C 
BRANCH  28  29
ATOM     29  C   UNL     1     -44.811 -16.612 -25.763  0.00  0.00    +0.000 A 
ATOM     30  C   UNL     1     -43.978 -17.553 -26.407  0.00  0.00    +0.000 A 
ATOM     31  C   UNL     1     -42.842 -17.129 -27.282  0.00  0.00    +0.000 C 
ATOM     32  C   UNL     1     -44.216 -18.925 -26.232  0.00  0.00    +0.000 A 
ATOM     33  C   UNL     1     -45.276 -19.364 -25.429  0.00  0.00    +0.000 A 
ATOM     34  C   UNL     1     -46.104 -18.432 -24.794  0.00  0.00    +0.000 A 
ATOM     35  C   UNL     1     -45.870 -17.062 -24.958  0.00  0.00    +0.000 A 
ENDBRANCH  28  29
ENDBRANCH  26  28
ENDBRANCH  23  24
ENDBRANCH   8  23
TORSDOF 5
ENDMDL
MODEL 2
REMARK VINA RESULT:      -7.5      4.169      7.679
REMARK  Name = ZINC000064971506 ZINC64971506 ChemDiv-G741-1139 MCULE-4305964791 MolPort-010-846-948 PubChem-53091021
REMARK  5 active torsions:
REMARK  status: ('A' for Active; 'I' for Inactive)
REMARK    1  A    between atoms: N_1  and  C_20
REMARK    2  A    between atoms: N_8  and  C_23
REMARK    3  A    between atoms: C_23  and  C_24
REMARK    4  A    between atoms: N_26  and  C_28
REMARK    5  A    between atoms: C_28  and  C_29
REMARK                            x       y       z     vdW  Elec       q    Type
REMARK                         _______ _______ _______ _____ _____    ______ ____
ROOT
ATOM      1  N   UNL     1     -45.340 -13.909 -27.361  0.00  0.00    +0.000 N 
ATOM      2  C   UNL     1     -44.433 -14.944 -27.768  0.00  0.00    +0.000 C 
ATOM      3  O   UNL     1     -43.813 -14.849 -28.861  0.00  0.00    +0.000 OA
ATOM      4  N   UNL     1     -44.262 -16.109 -26.931  0.00  0.00    +0.000 N 
ATOM      5  C   UNL     1     -45.119 -16.221 -25.747  0.00  0.00    +0.000 C 
ATOM      6  C   UNL     1     -45.434 -17.648 -25.432  0.00  0.00    +0.000 C 
ATOM      7  O   UNL     1     -46.518 -17.926 -24.858  0.00  0.00    +0.000 OA
ATOM      8  N   UNL     1     -44.474 -18.675 -25.717  0.00  0.00    +0.000 N 
ATOM      9  C   UNL     1     -43.334 -18.367 -26.546  0.00  0.00    +0.000 A 
ATOM     10  C   UNL     1     -43.225 -17.096 -27.152  0.00  0.00    +0.000 A 
ATOM     11  C   UNL     1     -42.101 -16.810 -27.943  0.00  0.00    +0.000 A 
ATOM     12  C   UNL     1     -41.107 -17.768 -28.146  0.00  0.00    +0.000 A 
ATOM     13  C   UNL     1     -41.222 -19.026 -27.559  0.00  0.00    +0.000 A 
ATOM     14  C   UNL     1     -42.330 -19.325 -26.764  0.00  0.00    +0.000 A 
ATOM     15  H   UNL     1     -45.759 -14.014 -26.478  0.00  0.00    +0.000 HD
ENDROOT
BRANCH   1  20
ATOM     16  C   UNL     1     -46.725  -9.158 -30.245  0.00  0.00    +0.000 C 
ATOM     17  C   UNL     1     -46.372 -10.398 -29.503  0.00  0.00    +0.000 A 
ATOM     18  C   UNL     1     -45.409 -10.355 -28.491  0.00  0.00    +0.000 A 
ATOM     19  C   UNL     1     -45.078 -11.522 -27.795  0.00  0.00    +0.000 A 
ATOM     20  C   UNL     1     -45.704 -12.735 -28.105  0.00  0.00    +0.000 A 
ATOM     21  C   UNL     1     -46.673 -12.770 -29.117  0.00  0.00    +0.000 A 
ATOM     22  C   UNL     1     -47.007 -11.604 -29.815  0.00  0.00    +0.000 A 
ENDBRANCH   1  20
BRANCH   8  23
ATOM     23  C   UNL     1     -44.631 -19.987 -25.089  0.00  0.00    +0.000 C 
BRANCH  23  24
ATOM     24  C   UNL     1     -44.109 -19.964 -23.688  0.00  0.00    +0.000 C 
ATOM     25  O   UNL     1     -43.088 -20.643 -23.397  0.00  0.00    +0.000 OA
ATOM     26  N   UNL     1     -44.767 -19.177 -22.690  0.00  0.00    +0.000 N 
ATOM     27  H   UNL     1     -45.673 -18.839 -22.878  0.00  0.00    +0.000 HD
BRANCH  26  28
ATOM     28  C   UNL     1     -44.155 -18.854 -21.408  0.00  0.00    +0.000 C 
BRANCH  28  29
ATOM     29  C   UNL     1     -44.974 -17.819 -20.688  0.00  0.00    +0.000 A 
ATOM     30  C   UNL     1     -45.977 -18.173 -19.759  0.00  0.00    +0.000 A 
ATOM     31  C   UNL     1     -46.256 -19.600 -19.408  0.00  0.00    +0.000 C 
ATOM     32  C   UNL     1     -46.741 -17.169 -19.146  0.00  0.00    +0.000 A 
ATOM     33  C   UNL     1     -46.519 -15.821 -19.455  0.00  0.00    +0.000 A 
ATOM     34  C   UNL     1     -45.528 -15.470 -20.379  0.00  0.00    +0.000 A 
ATOM     35  C   UNL     1     -44.758 -16.466 -20.990  0.00  0.00    +0.000 A 
ENDBRANCH  28  29
ENDBRANCH  26  28
ENDBRANCH  23  24
ENDBRANCH   8  23
TORSDOF 5
ENDMDL
MODEL 3
REMARK VINA RESULT:      -7.5      6.764      9.849
REMARK  Name = ZINC000064971506 ZINC64971506 ChemDiv-G741-1139 MCULE-4305964791 MolPort-010-846-948 PubChem-53091021
REMARK  5 active torsions:
REMARK  status: ('A' for Active; 'I' for Inactive)
REMARK    1  A    between atoms: N_1  and  C_20
REMARK    2  A    between atoms: N_8  and  C_23
REMARK    3  A    between atoms: C_23  and  C_24
REMARK    4  A    between atoms: N_26  and  C_28
REMARK    5  A    between atoms: C_28  and  C_29
REMARK                            x       y       z     vdW  Elec       q    Type
REMARK                         _______ _______ _______ _____ _____    ______ ____
ROOT
ATOM      1  N   UNL     1     -41.370  -1.986 -32.345  0.00  0.00    +0.000 N 
ATOM      2  C   UNL     1     -42.050  -2.935 -33.180  0.00  0.00    +0.000 C 
ATOM      3  O   UNL     1     -41.630  -3.168 -34.345  0.00  0.00    +0.000 OA
ATOM      4  N   UNL     1     -43.238  -3.593 -32.688  0.00  0.00    +0.000 N 
ATOM      5  C   UNL     1     -43.752  -3.170 -31.382  0.00  0.00    +0.000 C 
ATOM      6  C   UNL     1     -45.241  -3.279 -31.318  0.00  0.00    +0.000 C 
ATOM      7  O   UNL     1     -45.884  -2.500 -30.568  0.00  0.00    +0.000 OA
ATOM      8  N   UNL     1     -45.918  -4.311 -32.051  0.00  0.00    +0.000 N 
ATOM      9  C   UNL     1     -45.194  -5.061 -33.048  0.00  0.00    +0.000 A 
ATOM     10  C   UNL     1     -43.865  -4.707 -33.369  0.00  0.00    +0.000 A 
ATOM     11  C   UNL     1     -43.172  -5.458 -34.333  0.00  0.00    +0.000 A 
ATOM     12  C   UNL     1     -43.785  -6.530 -34.981  0.00  0.00    +0.000 A 
ATOM     13  C   UNL     1     -45.101  -6.869 -34.674  0.00  0.00    +0.000 A 
ATOM     14  C   UNL     1     -45.802  -6.138 -33.713  0.00  0.00    +0.000 A 
ATOM     15  H   UNL     1     -41.716  -1.880 -31.430  0.00  0.00    +0.000 HD
ENDROOT
BRANCH   1  20
ATOM     16  C   UNL     1     -36.790   1.156 -33.738  0.00  0.00    +0.000 C 
ATOM     17  C   UNL     1     -37.986   0.349 -33.378  0.00  0.00    +0.000 A 
ATOM     18  C   UNL     1     -37.867  -1.031 -33.196  0.00  0.00    +0.000 A 
ATOM     19  C   UNL     1     -38.993  -1.789 -32.857  0.00  0.00    +0.000 A 
ATOM     20  C   UNL     1     -40.241  -1.173 -32.700  0.00  0.00    +0.000 A 
ATOM     21  C   UNL     1     -40.351   0.213 -32.878  0.00  0.00    +0.000 A 
ATOM     22  C   UNL     1     -39.227   0.973 -33.216  0.00  0.00    +0.000 A 
ENDBRANCH   1  20
BRANCH   8  23
ATOM     23  C   UNL     1     -47.302  -4.636 -31.706  0.00  0.00    +0.000 C 
BRANCH  23  24
ATOM     24  C   UNL     1     -47.346  -5.636 -30.596  0.00  0.00    +0.000 C 
ATOM     25  O   UNL     1     -47.752  -6.805 -30.832  0.00  0.00    +0.000 OA
ATOM     26  N   UNL     1     -46.931  -5.264 -29.278  0.00  0.00    +0.000 N 
ATOM     27  H   UNL     1     -46.833  -4.306 -29.067  0.00  0.00    +0.000 HD
BRANCH  26  28
ATOM     28  C   UNL     1     -46.647  -6.239 -28.233  0.00  0.00    +0.000 C 
BRANCH  28  29
ATOM     29  C   UNL     1     -45.162  -6.392 -28.056  0.00  0.00    +0.000 A 
ATOM     30  C   UNL     1     -44.593  -6.801 -26.830  0.00  0.00    +0.000 A 
ATOM     31  C   UNL     1     -45.440  -7.145 -25.646  0.00  0.00    +0.000 C 
ATOM     32  C   UNL     1     -43.199  -6.887 -26.706  0.00  0.00    +0.000 A 
ATOM     33  C   UNL     1     -42.369  -6.564 -27.788  0.00  0.00    +0.000 A 
ATOM     34  C   UNL     1     -42.932  -6.155 -29.001  0.00  0.00    +0.000 A 
ATOM     35  C   UNL     1     -44.323  -6.072 -29.135  0.00  0.00    +0.000 A 
ENDBRANCH  28  29
ENDBRANCH  26  28
ENDBRANCH  23  24
ENDBRANCH   8  23
TORSDOF 5
ENDMDL
