MODEL 1
REMARK VINA RESULT:      -5.6      0.000      0.000
REMARK  Name = ZINC000030726767 ZINC30726767 PubChem-37870901
REMARK  7 active torsions:
REMARK  status: ('A' for Active; 'I' for Inactive)
REMARK    1  A    between atoms: N_1  and  C_10
REMARK    2  A    between atoms: C_2  and  C_18
REMARK    3  A    between atoms: C_5  and  O_15
REMARK    4  A    between atoms: O_15  and  C_17
REMARK    5  A    between atoms: C_18  and  C_19
REMARK    6  A    between atoms: C_19  and  C_20
REMARK    7  A    between atoms: C_29  and  O_32
REMARK                            x       y       z     vdW  Elec       q    Type
REMARK                         _______ _______ _______ _____ _____    ______ ____
ROOT
ATOM      1  N   UNL     1     -41.685  -3.415 -32.112  0.00  0.00    +0.000 N 
ATOM      2  C   UNL     1     -42.243  -2.474 -33.038  0.00  0.00    +0.000 C 
ATOM      3  O   UNL     1     -41.842  -1.282 -33.012  0.00  0.00    +0.000 OA
ATOM      4  H   UNL     1     -40.891  -3.116 -31.612  0.00  0.00    +0.000 HD
ENDROOT
BRANCH   1  10
ATOM      5  C   UNL     1     -41.782  -5.799 -32.700  0.00  0.00    +0.000 A 
ATOM      6  C   UNL     1     -42.209  -7.117 -32.428  0.00  0.00    +0.000 A 
ATOM      7  C   UNL     1     -42.986  -7.345 -31.297  0.00  0.00    +0.000 A 
ATOM      8  C   UNL     1     -43.327  -6.332 -30.455  0.00  0.00    +0.000 A 
ATOM      9  C   UNL     1     -42.923  -5.021 -30.684  0.00  0.00    +0.000 A 
ATOM     10  C   UNL     1     -42.150  -4.744 -31.830  0.00  0.00    +0.000 A 
ATOM     11  O   UNL     1     -44.091  -6.788 -29.404  0.00  0.00    +0.000 OA
ATOM     12  C   UNL     1     -44.305  -8.194 -29.529  0.00  0.00    +0.000 C 
ATOM     13  C   UNL     1     -43.549  -8.627 -30.805  0.00  0.00    +0.000 C 
ATOM     14  C   UNL     1     -43.730  -8.910 -28.324  0.00  0.00    +0.000 C 
BRANCH   5  15
ATOM     15  O   UNL     1     -40.999  -5.513 -33.824  0.00  0.00    +0.000 OA
BRANCH  15  17
ATOM     16  C   UNL     1     -39.356  -6.797 -35.008  0.00  0.00    +0.000 C 
ATOM     17  C   UNL     1     -39.610  -5.808 -33.890  0.00  0.00    +0.000 C 
ENDBRANCH  15  17
ENDBRANCH   5  15
ENDBRANCH   1  10
BRANCH   2  18
ATOM     18  C   UNL     1     -43.226  -2.877 -34.087  0.00  0.00    +0.000 C 
BRANCH  18  19
ATOM     19  C   UNL     1     -44.566  -2.216 -33.816  0.00  0.00    +0.000 C 
BRANCH  19  20
ATOM     20  C   UNL     1     -45.259  -2.879 -32.660  0.00  0.00    +0.000 A 
ATOM     21  C   UNL     1     -45.708  -4.218 -32.785  0.00  0.00    +0.000 A 
ATOM     22  C   UNL     1     -46.325  -4.799 -31.667  0.00  0.00    +0.000 A 
ATOM     23  C   UNL     1     -46.529  -4.067 -30.531  0.00  0.00    +0.000 A 
ATOM     24  N   UNL     1     -46.111  -2.786 -30.397  0.00  0.00    +0.000 NA
ATOM     25  C   UNL     1     -45.462  -2.182 -31.435  0.00  0.00    +0.000 A 
ATOM     26  C   UNL     1     -44.976  -0.784 -31.249  0.00  0.00    +0.000 C 
ATOM     27  N   UNL     1     -47.220  -4.780 -29.631  0.00  0.00    +0.000 N 
ATOM     28  N   UNL     1     -47.476  -5.978 -30.139  0.00  0.00    +0.000 NA
ATOM     29  C   UNL     1     -46.926  -6.027 -31.378  0.00  0.00    +0.000 A 
ATOM     30  C   UNL     1     -47.650  -4.341 -28.316  0.00  0.00    +0.000 C 
ATOM     31  C   UNL     1     -45.601  -4.938 -34.089  0.00  0.00    +0.000 C 
BRANCH  29  32
ATOM     32  O   UNL     1     -46.987  -7.176 -32.170  0.00  0.00    +0.000 OA
ATOM     33  C   UNL     1     -47.486  -8.414 -31.691  0.00  0.00    +0.000 C 
ENDBRANCH  29  32
ENDBRANCH  19  20
ENDBRANCH  18  19
ENDBRANCH   2  18
TORSDOF 7
ENDMDL
MODEL 2
REMARK VINA RESULT:      -5.5     10.911     15.363
REMARK  Name = ZINC000030726767 ZINC30726767 PubChem-37870901
REMARK  7 active torsions:
REMARK  status: ('A' for Active; 'I' for Inactive)
REMARK    1  A    between atoms: N_1  and  C_10
REMARK    2  A    between atoms: C_2  and  C_18
REMARK    3  A    between atoms: C_5  and  O_15
REMARK    4  A    between atoms: O_15  and  C_17
REMARK    5  A    between atoms: C_18  and  C_19
REMARK    6  A    between atoms: C_19  and  C_20
REMARK    7  A    between atoms: C_29  and  O_32
REMARK                            x       y       z     vdW  Elec       q    Type
REMARK                         _______ _______ _______ _____ _____    ______ ____
ROOT
ATOM      1  N   UNL     1     -42.775 -16.445 -26.153  0.00  0.00    +0.000 N 
ATOM      2  C   UNL     1     -42.728 -17.874 -26.258  0.00  0.00    +0.000 C 
ATOM      3  O   UNL     1     -41.634 -18.464 -26.063  0.00  0.00    +0.000 OA
ATOM      4  H   UNL     1     -41.980 -16.010 -25.768  0.00  0.00    +0.000 HD
ENDROOT
BRANCH   1  10
ATOM      5  C   UNL     1     -44.714 -15.061 -25.548  0.00  0.00    +0.000 A 
ATOM      6  C   UNL     1     -45.762 -14.186 -25.909  0.00  0.00    +0.000 A 
ATOM      7  C   UNL     1     -45.914 -13.848 -27.250  0.00  0.00    +0.000 A 
ATOM      8  C   UNL     1     -45.073 -14.332 -28.204  0.00  0.00    +0.000 A 
ATOM      9  C   UNL     1     -44.027 -15.192 -27.890  0.00  0.00    +0.000 A 
ATOM     10  C   UNL     1     -43.849 -15.576 -26.545  0.00  0.00    +0.000 A 
ATOM     11  O   UNL     1     -45.408 -13.863 -29.454  0.00  0.00    +0.000 OA
ATOM     12  C   UNL     1     -46.554 -13.014 -29.367  0.00  0.00    +0.000 C 
ATOM     13  C   UNL     1     -46.927 -12.957 -27.869  0.00  0.00    +0.000 C 
ATOM     14  C   UNL     1     -46.202 -11.626 -29.861  0.00  0.00    +0.000 C 
BRANCH   5  15
ATOM     15  O   UNL     1     -44.515 -15.435 -24.214  0.00  0.00    +0.000 OA
BRANCH  15  17
ATOM     16  C   UNL     1     -44.670 -15.072 -21.850  0.00  0.00    +0.000 C 
ATOM     17  C   UNL     1     -45.408 -15.068 -23.172  0.00  0.00    +0.000 C 
ENDBRANCH  15  17
ENDBRANCH   5  15
ENDBRANCH   1  10
BRANCH   2  18
ATOM     18  C   UNL     1     -43.949 -18.695 -26.509  0.00  0.00    +0.000 C 
BRANCH  18  19
ATOM     19  C   UNL     1     -43.935 -19.922 -25.614  0.00  0.00    +0.000 C 
BRANCH  19  20
ATOM     20  C   UNL     1     -44.175 -19.536 -24.182  0.00  0.00    +0.000 A 
ATOM     21  C   UNL     1     -43.214 -19.869 -23.194  0.00  0.00    +0.000 A 
ATOM     22  C   UNL     1     -43.475 -19.462 -21.878  0.00  0.00    +0.000 A 
ATOM     23  C   UNL     1     -44.642 -18.822 -21.570  0.00  0.00    +0.000 A 
ATOM     24  N   UNL     1     -45.573 -18.501 -22.500  0.00  0.00    +0.000 NA
ATOM     25  C   UNL     1     -45.353 -18.830 -23.806  0.00  0.00    +0.000 A 
ATOM     26  C   UNL     1     -46.374 -18.430 -24.818  0.00  0.00    +0.000 C 
ATOM     27  N   UNL     1     -44.729 -18.616 -20.248  0.00  0.00    +0.000 N 
ATOM     28  N   UNL     1     -43.639 -19.099 -19.667  0.00  0.00    +0.000 NA
ATOM     29  C   UNL     1     -42.843 -19.608 -20.639  0.00  0.00    +0.000 A 
ATOM     30  C   UNL     1     -45.827 -17.989 -19.534  0.00  0.00    +0.000 C 
ATOM     31  C   UNL     1     -42.021 -20.697 -23.542  0.00  0.00    +0.000 C 
BRANCH  29  32
ATOM     32  O   UNL     1     -41.593 -20.162 -20.358  0.00  0.00    +0.000 OA
ATOM     33  C   UNL     1     -41.435 -21.427 -19.737  0.00  0.00    +0.000 C 
ENDBRANCH  29  32
ENDBRANCH  19  20
ENDBRANCH  18  19
ENDBRANCH   2  18
TORSDOF 7
ENDMDL
MODEL 3
REMARK VINA RESULT:      -5.5      2.468      6.009
REMARK  Name = ZINC000030726767 ZINC30726767 PubChem-37870901
REMARK  7 active torsions:
REMARK  status: ('A' for Active; 'I' for Inactive)
REMARK    1  A    between atoms: N_1  and  C_10
REMARK    2  A    between atoms: C_2  and  C_18
REMARK    3  A    between atoms: C_5  and  O_15
REMARK    4  A    between atoms: O_15  and  C_17
REMARK    5  A    between atoms: C_18  and  C_19
REMARK    6  A    between atoms: C_19  and  C_20
REMARK    7  A    between atoms: C_29  and  O_32
REMARK                            x       y       z     vdW  Elec       q    Type
REMARK                         _______ _______ _______ _____ _____    ______ ____
ROOT
ATOM      1  N   UNL     1     -47.398  -4.039 -31.663  0.00  0.00    +0.000 N 
ATOM      2  C   UNL     1     -46.440  -3.420 -32.531  0.00  0.00    +0.000 C 
ATOM      3  O   UNL     1     -46.850  -2.702 -33.479  0.00  0.00    +0.000 OA
ATOM      4  H   UNL     1     -48.330  -3.734 -31.754  0.00  0.00    +0.000 HD
ENDROOT
BRANCH   1  10
ATOM      5  C   UNL     1     -47.014  -6.398 -31.093  0.00  0.00    +0.000 A 
ATOM      6  C   UNL     1     -46.752  -7.407 -30.140  0.00  0.00    +0.000 A 
ATOM      7  C   UNL     1     -46.635  -7.045 -28.802  0.00  0.00    +0.000 A 
ATOM      8  C   UNL     1     -46.757  -5.749 -28.405  0.00  0.00    +0.000 A 
ATOM      9  C   UNL     1     -47.011  -4.725 -29.311  0.00  0.00    +0.000 A 
ATOM     10  C   UNL     1     -47.156  -5.052 -30.675  0.00  0.00    +0.000 A 
ATOM     11  O   UNL     1     -46.601  -5.624 -27.043  0.00  0.00    +0.000 OA
ATOM     12  C   UNL     1     -46.370  -6.907 -26.458  0.00  0.00    +0.000 C 
ATOM     13  C   UNL     1     -46.365  -7.914 -27.629  0.00  0.00    +0.000 C 
ATOM     14  C   UNL     1     -45.022  -6.919 -25.765  0.00  0.00    +0.000 C 
BRANCH   5  15
ATOM     15  O   UNL     1     -47.142  -6.707 -32.452  0.00  0.00    +0.000 OA
BRANCH  15  17
ATOM     16  C   UNL     1     -45.850  -6.492 -34.460  0.00  0.00    +0.000 C 
ATOM     17  C   UNL     1     -46.096  -7.305 -33.206  0.00  0.00    +0.000 C 
ENDBRANCH  15  17
ENDBRANCH   5  15
ENDBRANCH   1  10
BRANCH   2  18
ATOM     18  C   UNL     1     -44.969  -3.529 -32.300  0.00  0.00    +0.000 C 
BRANCH  18  19
ATOM     19  C   UNL     1     -44.221  -3.146 -33.565  0.00  0.00    +0.000 C 
BRANCH  19  20
ATOM     20  C   UNL     1     -42.909  -2.497 -33.228  0.00  0.00    +0.000 A 
ATOM     21  C   UNL     1     -41.698  -3.197 -33.461  0.00  0.00    +0.000 A 
ATOM     22  C   UNL     1     -40.501  -2.535 -33.153  0.00  0.00    +0.000 A 
ATOM     23  C   UNL     1     -40.523  -1.287 -32.598  0.00  0.00    +0.000 A 
ATOM     24  N   UNL     1     -41.670  -0.606 -32.364  0.00  0.00    +0.000 NA
ATOM     25  C   UNL     1     -42.866  -1.180 -32.686  0.00  0.00    +0.000 A 
ATOM     26  C   UNL     1     -44.113  -0.395 -32.457  0.00  0.00    +0.000 C 
ATOM     27  N   UNL     1     -39.281  -0.887 -32.293  0.00  0.00    +0.000 N 
ATOM     28  N   UNL     1     -38.426  -1.839 -32.642  0.00  0.00    +0.000 NA
ATOM     29  C   UNL     1     -39.140  -2.855 -33.188  0.00  0.00    +0.000 A 
ATOM     30  C   UNL     1     -38.897   0.366 -31.668  0.00  0.00    +0.000 C 
ATOM     31  C   UNL     1     -41.718  -4.614 -33.932  0.00  0.00    +0.000 C 
BRANCH  29  32
ATOM     32  O   UNL     1     -38.527  -4.002 -33.695  0.00  0.00    +0.000 OA
ATOM     33  C   UNL     1     -38.145  -4.133 -35.054  0.00  0.00    +0.000 C 
ENDBRANCH  29  32
ENDBRANCH  19  20
ENDBRANCH  18  19
ENDBRANCH   2  18
TORSDOF 7
ENDMDL
