MODEL 1
REMARK VINA RESULT:      -6.6      0.000      0.000
REMARK  Name = ZINC000009668994 ZINC09668994 MCULE-8076656681 MolPort-002-986-247 PubChem-16479684
REMARK  7 active torsions:
REMARK  status: ('A' for Active; 'I' for Inactive)
REMARK    1  A    between atoms: C_1  and  C_2
REMARK    2  A    between atoms: C_1  and  S_16
REMARK    3  A    between atoms: N_4  and  C_6
REMARK    4  A    between atoms: C_8  and  N_13
REMARK    5  A    between atoms: S_16  and  C_20
REMARK    6  A    between atoms: C_17  and  C_29
REMARK    7  A    between atoms: N_21  and  C_22
REMARK                            x       y       z     vdW  Elec       q    Type
REMARK                         _______ _______ _______ _____ _____    ______ ____
ROOT
ATOM      1  C   UNL     1     -44.173 -18.668 -24.025  0.00  0.00    +0.000 C 
ENDROOT
BRANCH   1   2
ATOM      2  C   UNL     1     -44.936 -18.865 -25.293  0.00  0.00    +0.000 C 
ATOM      3  O   UNL     1     -45.551 -19.950 -25.460  0.00  0.00    +0.000 OA
ATOM      4  N   UNL     1     -44.979 -17.877 -26.332  0.00  0.00    +0.000 N 
ATOM      5  H   UNL     1     -45.303 -18.186 -27.210  0.00  0.00    +0.000 HD
BRANCH   4   6
ATOM      6  C   UNL     1     -44.606 -16.492 -26.248  0.00  0.00    +0.000 A 
ATOM      7  C   UNL     1     -45.477 -15.530 -25.713  0.00  0.00    +0.000 A 
ATOM      8  C   UNL     1     -45.116 -14.177 -25.660  0.00  0.00    +0.000 A 
ATOM      9  C   UNL     1     -43.869 -13.783 -26.161  0.00  0.00    +0.000 A 
ATOM     10  C   UNL     1     -42.997 -14.728 -26.704  0.00  0.00    +0.000 A 
ATOM     11  C   UNL     1     -43.359 -16.077 -26.751  0.00  0.00    +0.000 A 
ATOM     12  C   UNL     1     -42.405 -17.057 -27.343  0.00  0.00    +0.000 C 
BRANCH   8  13
ATOM     13  N   UNL     1     -46.012 -13.213 -25.089  0.00  0.00    +0.000 N 
ATOM     14  O   UNL     1     -46.232 -13.194 -23.730  0.00  0.00    +0.000 OA
ATOM     15  O   UNL     1     -46.584 -12.371 -25.811  0.00  0.00    +0.000 OA
ENDBRANCH   8  13
ENDBRANCH   4   6
ENDBRANCH   1   2
BRANCH   1  16
ATOM     16  S   UNL     1     -45.221 -17.874 -22.772  0.00  0.00    +0.000 S 
BRANCH  16  20
ATOM     17  C   UNL     1     -43.704 -19.410 -19.563  0.00  0.00    +0.000 A 
ATOM     18  N   UNL     1     -43.135 -20.205 -20.489  0.00  0.00    +0.000 NA
ATOM     19  N   UNL     1     -43.586 -19.812 -21.671  0.00  0.00    +0.000 NA
ATOM     20  C   UNL     1     -44.433 -18.789 -21.446  0.00  0.00    +0.000 A 
ATOM     21  N   UNL     1     -44.532 -18.502 -20.128  0.00  0.00    +0.000 N 
BRANCH  21  22
ATOM     22  C   UNL     1     -45.314 -17.476 -19.482  0.00  0.00    +0.000 A 
ATOM     23  C   UNL     1     -44.707 -16.289 -19.037  0.00  0.00    +0.000 A 
ATOM     24  C   UNL     1     -45.467 -15.293 -18.416  0.00  0.00    +0.000 A 
ATOM     25  C   UNL     1     -46.840 -15.475 -18.228  0.00  0.00    +0.000 A 
ATOM     26  C   UNL     1     -47.453 -16.654 -18.660  0.00  0.00    +0.000 A 
ATOM     27  C   UNL     1     -46.693 -17.647 -19.283  0.00  0.00    +0.000 A 
ENDBRANCH  21  22
BRANCH  17  29
ATOM     28  C   UNL     1     -42.227 -18.732 -17.708  0.00  0.00    +0.000 C 
ATOM     29  C   UNL     1     -43.443 -19.546 -18.099  0.00  0.00    +0.000 C 
ENDBRANCH  17  29
ENDBRANCH  16  20
ENDBRANCH   1  16
TORSDOF 7
ENDMDL
MODEL 2
REMARK VINA RESULT:      -6.0      2.933      7.436
REMARK  Name = ZINC000009668994 ZINC09668994 MCULE-8076656681 MolPort-002-986-247 PubChem-16479684
REMARK  7 active torsions:
REMARK  status: ('A' for Active; 'I' for Inactive)
REMARK    1  A    between atoms: C_1  and  C_2
REMARK    2  A    between atoms: C_1  and  S_16
REMARK    3  A    between atoms: N_4  and  C_6
REMARK    4  A    between atoms: C_8  and  N_13
REMARK    5  A    between atoms: S_16  and  C_20
REMARK    6  A    between atoms: C_17  and  C_29
REMARK    7  A    between atoms: N_21  and  C_22
REMARK                            x       y       z     vdW  Elec       q    Type
REMARK                         _______ _______ _______ _____ _____    ______ ____
ROOT
ATOM      1  C   UNL     1     -43.265 -16.154 -21.644  0.00  0.00    +0.000 C 
ENDROOT
BRANCH   1   2
ATOM      2  C   UNL     1     -43.015 -17.299 -20.719  0.00  0.00    +0.000 C 
ATOM      3  O   UNL     1     -41.954 -17.962 -20.858  0.00  0.00    +0.000 OA
ATOM      4  N   UNL     1     -43.942 -17.684 -19.695  0.00  0.00    +0.000 N 
ATOM      5  H   UNL     1     -43.806 -18.576 -19.300  0.00  0.00    +0.000 HD
BRANCH   4   6
ATOM      6  C   UNL     1     -45.047 -16.924 -19.176  0.00  0.00    +0.000 A 
ATOM      7  C   UNL     1     -44.849 -15.709 -18.503  0.00  0.00    +0.000 A 
ATOM      8  C   UNL     1     -45.929 -14.988 -17.976  0.00  0.00    +0.000 A 
ATOM      9  C   UNL     1     -47.225 -15.502 -18.116  0.00  0.00    +0.000 A 
ATOM     10  C   UNL     1     -47.435 -16.714 -18.775  0.00  0.00    +0.000 A 
ATOM     11  C   UNL     1     -46.355 -17.427 -19.304  0.00  0.00    +0.000 A 
ATOM     12  C   UNL     1     -46.618 -18.721 -19.995  0.00  0.00    +0.000 C 
BRANCH   8  13
ATOM     13  N   UNL     1     -45.707 -13.738 -17.311  0.00  0.00    +0.000 N 
ATOM     14  O   UNL     1     -45.722 -12.562 -18.028  0.00  0.00    +0.000 OA
ATOM     15  O   UNL     1     -45.519 -13.697 -16.077  0.00  0.00    +0.000 OA
ENDBRANCH   8  13
ENDBRANCH   4   6
ENDBRANCH   1   2
BRANCH   1  16
ATOM     16  S   UNL     1     -42.042 -16.146 -22.987  0.00  0.00    +0.000 S 
BRANCH  16  20
ATOM     17  C   UNL     1     -44.536 -14.601 -25.506  0.00  0.00    +0.000 A 
ATOM     18  N   UNL     1     -43.913 -13.484 -25.085  0.00  0.00    +0.000 NA
ATOM     19  N   UNL     1     -43.023 -13.853 -24.176  0.00  0.00    +0.000 NA
ATOM     20  C   UNL     1     -43.124 -15.190 -24.049  0.00  0.00    +0.000 A 
ATOM     21  N   UNL     1     -44.065 -15.701 -24.875  0.00  0.00    +0.000 N 
BRANCH  21  22
ATOM     22  C   UNL     1     -44.462 -17.077 -25.052  0.00  0.00    +0.000 A 
ATOM     23  C   UNL     1     -43.799 -17.899 -25.978  0.00  0.00    +0.000 A 
ATOM     24  C   UNL     1     -44.181 -19.234 -26.145  0.00  0.00    +0.000 A 
ATOM     25  C   UNL     1     -45.235 -19.758 -25.391  0.00  0.00    +0.000 A 
ATOM     26  C   UNL     1     -45.906 -18.949 -24.472  0.00  0.00    +0.000 A 
ATOM     27  C   UNL     1     -45.521 -17.617 -24.305  0.00  0.00    +0.000 A 
ENDBRANCH  21  22
BRANCH  17  29
ATOM     28  C   UNL     1     -45.013 -14.528 -27.925  0.00  0.00    +0.000 C 
ATOM     29  C   UNL     1     -45.617 -14.595 -26.536  0.00  0.00    +0.000 C 
ENDBRANCH  17  29
ENDBRANCH  16  20
ENDBRANCH   1  16
TORSDOF 7
ENDMDL
MODEL 3
REMARK VINA RESULT:      -6.0      2.566      7.806
REMARK  Name = ZINC000009668994 ZINC09668994 MCULE-8076656681 MolPort-002-986-247 PubChem-16479684
REMARK  7 active torsions:
REMARK  status: ('A' for Active; 'I' for Inactive)
REMARK    1  A    between atoms: C_1  and  C_2
REMARK    2  A    between atoms: C_1  and  S_16
REMARK    3  A    between atoms: N_4  and  C_6
REMARK    4  A    between atoms: C_8  and  N_13
REMARK    5  A    between atoms: S_16  and  C_20
REMARK    6  A    between atoms: C_17  and  C_29
REMARK    7  A    between atoms: N_21  and  C_22
REMARK                            x       y       z     vdW  Elec       q    Type
REMARK                         _______ _______ _______ _____ _____    ______ ____
ROOT
ATOM      1  C   UNL     1     -44.793 -14.106 -21.005  0.00  0.00    +0.000 C 
ENDROOT
BRANCH   1   2
ATOM      2  C   UNL     1     -44.883 -14.023 -19.517  0.00  0.00    +0.000 C 
ATOM      3  O   UNL     1     -45.001 -12.889 -18.986  0.00  0.00    +0.000 OA
ATOM      4  N   UNL     1     -44.820 -15.180 -18.671  0.00  0.00    +0.000 N 
ATOM      5  H   UNL     1     -44.651 -15.010 -17.716  0.00  0.00    +0.000 HD
BRANCH   4   6
ATOM      6  C   UNL     1     -44.972 -16.559 -19.051  0.00  0.00    +0.000 A 
ATOM      7  C   UNL     1     -43.873 -17.333 -19.453  0.00  0.00    +0.000 A 
ATOM      8  C   UNL     1     -44.034 -18.668 -19.848  0.00  0.00    +0.000 A 
ATOM      9  C   UNL     1     -45.317 -19.229 -19.851  0.00  0.00    +0.000 A 
ATOM     10  C   UNL     1     -46.420 -18.467 -19.462  0.00  0.00    +0.000 A 
ATOM     11  C   UNL     1     -46.254 -17.137 -19.064  0.00  0.00    +0.000 A 
ATOM     12  C   UNL     1     -47.456 -16.352 -18.661  0.00  0.00    +0.000 C 
BRANCH   8  13
ATOM     13  N   UNL     1     -42.895 -19.448 -20.234  0.00  0.00    +0.000 N 
ATOM     14  O   UNL     1     -43.021 -20.425 -21.198  0.00  0.00    +0.000 OA
ATOM     15  O   UNL     1     -41.776 -19.240 -19.721  0.00  0.00    +0.000 OA
ENDBRANCH   8  13
ENDBRANCH   4   6
ENDBRANCH   1   2
BRANCH   1  16
ATOM     16  S   UNL     1     -46.437 -14.386 -21.724  0.00  0.00    +0.000 S 
BRANCH  16  20
ATOM     17  C   UNL     1     -45.019 -13.904 -25.290  0.00  0.00    +0.000 A 
ATOM     18  N   UNL     1     -45.286 -12.622 -24.973  0.00  0.00    +0.000 NA
ATOM     19  N   UNL     1     -45.814 -12.623 -23.759  0.00  0.00    +0.000 NA
ATOM     20  C   UNL     1     -45.871 -13.907 -23.357  0.00  0.00    +0.000 A 
ATOM     21  N   UNL     1     -45.375 -14.746 -24.294  0.00  0.00    +0.000 N 
BRANCH  21  22
ATOM     22  C   UNL     1     -45.244 -16.182 -24.242  0.00  0.00    +0.000 A 
ATOM     23  C   UNL     1     -46.179 -17.009 -24.884  0.00  0.00    +0.000 A 
ATOM     24  C   UNL     1     -46.049 -18.401 -24.838  0.00  0.00    +0.000 A 
ATOM     25  C   UNL     1     -44.983 -18.980 -24.142  0.00  0.00    +0.000 A 
ATOM     26  C   UNL     1     -44.050 -18.168 -23.494  0.00  0.00    +0.000 A 
ATOM     27  C   UNL     1     -44.180 -16.778 -23.544  0.00  0.00    +0.000 A 
ENDBRANCH  21  22
BRANCH  17  29
ATOM     28  C   UNL     1     -45.454 -14.249 -27.693  0.00  0.00    +0.000 C 
ATOM     29  C   UNL     1     -44.415 -14.315 -26.592  0.00  0.00    +0.000 C 
ENDBRANCH  17  29
ENDBRANCH  16  20
ENDBRANCH   1  16
TORSDOF 7
ENDMDL
