MODEL 1
REMARK VINA RESULT:      -6.4      0.000      0.000
REMARK  Name = ZINC000005011747 PubChem-92247271
REMARK  9 active torsions:
REMARK  status: ('A' for Active; 'I' for Inactive)
REMARK    1  A    between atoms: N_18  and  C_21
REMARK    2  A    between atoms: C_21  and  C_22
REMARK    3  A    between atoms: C_22  and  O_23
REMARK    4  A    between atoms: C_22  and  C_25
REMARK    5  A    between atoms: C_25  and  O_26
REMARK    6  A    between atoms: C_25  and  C_28
REMARK    7  A    between atoms: C_28  and  O_29
REMARK    8  A    between atoms: C_28  and  C_31
REMARK    9  A    between atoms: C_31  and  O_32
REMARK                            x       y       z     vdW  Elec       q    Type
REMARK                         _______ _______ _______ _____ _____    ______ ____
ROOT
ATOM      1  C   UNL     1     -47.325 -15.177 -17.933  0.00  0.00    +0.000 C 
ATOM      2  C   UNL     1     -46.700 -15.551 -19.236  0.00  0.00    +0.000 A 
ATOM      3  C   UNL     1     -46.073 -16.792 -19.345  0.00  0.00    +0.000 A 
ATOM      4  C   UNL     1     -45.463 -17.198 -20.546  0.00  0.00    +0.000 A 
ATOM      5  C   UNL     1     -45.500 -16.322 -21.664  0.00  0.00    +0.000 A 
ATOM      6  C   UNL     1     -46.135 -15.076 -21.541  0.00  0.00    +0.000 A 
ATOM      7  C   UNL     1     -46.732 -14.687 -20.341  0.00  0.00    +0.000 A 
ATOM      8  C   UNL     1     -47.391 -13.351 -20.270  0.00  0.00    +0.000 C 
ATOM      9  N   UNL     1     -44.924 -16.679 -22.850  0.00  0.00    +0.000 N 
ATOM     10  C   UNL     1     -44.305 -17.890 -22.977  0.00  0.00    +0.000 A 
ATOM     11  C   UNL     1     -43.695 -18.340 -24.162  0.00  0.00    +0.000 A 
ATOM     12  O   UNL     1     -43.679 -17.629 -25.202  0.00  0.00    +0.000 OA
ATOM     13  N   UNL     1     -43.107 -19.565 -24.193  0.00  0.00    +0.000 N 
ATOM     14  C   UNL     1     -43.084 -20.388 -23.112  0.00  0.00    +0.000 A 
ATOM     15  O   UNL     1     -42.526 -21.513 -23.197  0.00  0.00    +0.000 OA
ATOM     16  N   UNL     1     -43.656 -20.007 -21.941  0.00  0.00    +0.000 NA
ATOM     17  C   UNL     1     -44.265 -18.800 -21.814  0.00  0.00    +0.000 A 
ATOM     18  N   UNL     1     -44.834 -18.413 -20.636  0.00  0.00    +0.000 N 
ATOM     19  O   UNL     1     -44.977 -15.803 -23.914  0.00  0.00    +0.000 OA
ATOM     20  H   UNL     1     -42.684 -19.867 -25.029  0.00  0.00    +0.000 HD
ENDROOT
BRANCH  18  21
ATOM     21  C   UNL     1     -44.778 -19.306 -19.472  0.00  0.00    +0.000 C 
BRANCH  21  22
ATOM     22  C   UNL     1     -43.500 -19.103 -18.659  0.00  0.00    +0.000 C 
BRANCH  22  23
ATOM     23  O   UNL     1     -42.540 -18.516 -19.486  0.00  0.00    +0.000 OA
ATOM     24  H   UNL     1     -42.657 -17.554 -19.485  0.00  0.00    +0.000 HD
ENDBRANCH  22  23
BRANCH  22  25
ATOM     25  C   UNL     1     -42.974 -20.427 -18.095  0.00  0.00    +0.000 C 
BRANCH  25  26
ATOM     26  O   UNL     1     -43.942 -21.430 -18.216  0.00  0.00    +0.000 OA
ATOM     27  H   UNL     1     -44.256 -21.468 -19.133  0.00  0.00    +0.000 HD
ENDBRANCH  25  26
BRANCH  25  28
ATOM     28  C   UNL     1     -41.689 -20.851 -18.812  0.00  0.00    +0.000 C 
BRANCH  28  29
ATOM     29  O   UNL     1     -41.966 -21.480 -20.027  0.00  0.00    +0.000 OA
ATOM     30  H   UNL     1     -42.554 -22.237 -19.873  0.00  0.00    +0.000 HD
ENDBRANCH  28  29
BRANCH  28  31
ATOM     31  C   UNL     1     -40.809 -21.734 -17.934  0.00  0.00    +0.000 C 
BRANCH  31  32
ATOM     32  O   UNL     1     -41.351 -21.861 -16.654  0.00  0.00    +0.000 OA
ATOM     33  H   UNL     1     -41.601 -20.986 -16.320  0.00  0.00    +0.000 HD
ENDBRANCH  31  32
ENDBRANCH  28  31
ENDBRANCH  25  28
ENDBRANCH  22  25
ENDBRANCH  21  22
ENDBRANCH  18  21
TORSDOF 9
ENDMDL
MODEL 2
REMARK VINA RESULT:      -6.1      4.131      6.787
REMARK  Name = ZINC000005011747 PubChem-92247271
REMARK  9 active torsions:
REMARK  status: ('A' for Active; 'I' for Inactive)
REMARK    1  A    between atoms: N_18  and  C_21
REMARK    2  A    between atoms: C_21  and  C_22
REMARK    3  A    between atoms: C_22  and  O_23
REMARK    4  A    between atoms: C_22  and  C_25
REMARK    5  A    between atoms: C_25  and  O_26
REMARK    6  A    between atoms: C_25  and  C_28
REMARK    7  A    between atoms: C_28  and  O_29
REMARK    8  A    between atoms: C_28  and  C_31
REMARK    9  A    between atoms: C_31  and  O_32
REMARK                            x       y       z     vdW  Elec       q    Type
REMARK                         _______ _______ _______ _____ _____    ______ ____
ROOT
ATOM      1  C   UNL     1     -45.328 -19.082 -20.445  0.00  0.00    +0.000 C 
ATOM      2  C   UNL     1     -45.487 -17.790 -21.174  0.00  0.00    +0.000 A 
ATOM      3  C   UNL     1     -45.333 -17.780 -22.560  0.00  0.00    +0.000 A 
ATOM      4  C   UNL     1     -45.467 -16.591 -23.301  0.00  0.00    +0.000 A 
ATOM      5  C   UNL     1     -45.772 -15.386 -22.613  0.00  0.00    +0.000 A 
ATOM      6  C   UNL     1     -45.924 -15.409 -21.217  0.00  0.00    +0.000 A 
ATOM      7  C   UNL     1     -45.785 -16.597 -20.497  0.00  0.00    +0.000 A 
ATOM      8  C   UNL     1     -45.957 -16.560 -19.017  0.00  0.00    +0.000 C 
ATOM      9  N   UNL     1     -45.915 -14.210 -23.294  0.00  0.00    +0.000 N 
ATOM     10  C   UNL     1     -45.769 -14.180 -24.652  0.00  0.00    +0.000 A 
ATOM     11  C   UNL     1     -45.906 -13.017 -25.430  0.00  0.00    +0.000 A 
ATOM     12  O   UNL     1     -46.175 -11.904 -24.906  0.00  0.00    +0.000 OA
ATOM     13  N   UNL     1     -45.747 -13.087 -26.779  0.00  0.00    +0.000 N 
ATOM     14  C   UNL     1     -45.457 -14.251 -27.417  0.00  0.00    +0.000 A 
ATOM     15  O   UNL     1     -45.321 -14.259 -28.668  0.00  0.00    +0.000 OA
ATOM     16  N   UNL     1     -45.311 -15.405 -26.717  0.00  0.00    +0.000 NA
ATOM     17  C   UNL     1     -45.450 -15.432 -25.366  0.00  0.00    +0.000 A 
ATOM     18  N   UNL     1     -45.296 -16.591 -24.661  0.00  0.00    +0.000 N 
ATOM     19  O   UNL     1     -46.208 -13.059 -22.594  0.00  0.00    +0.000 OA
ATOM     20  H   UNL     1     -45.846 -12.266 -27.311  0.00  0.00    +0.000 HD
ENDROOT
BRANCH  18  21
ATOM     21  C   UNL     1     -44.960 -17.834 -25.366  0.00  0.00    +0.000 C 
BRANCH  21  22
ATOM     22  C   UNL     1     -43.450 -18.008 -25.523  0.00  0.00    +0.000 C 
BRANCH  22  23
ATOM     23  O   UNL     1     -42.854 -16.746 -25.482  0.00  0.00    +0.000 OA
ATOM     24  H   UNL     1     -43.261 -16.219 -24.778  0.00  0.00    +0.000 HD
ENDBRANCH  22  23
BRANCH  22  25
ATOM     25  C   UNL     1     -43.098 -18.717 -26.835  0.00  0.00    +0.000 C 
BRANCH  25  26
ATOM     26  O   UNL     1     -44.251 -19.223 -27.444  0.00  0.00    +0.000 OA
ATOM     27  H   UNL     1     -44.001 -19.819 -28.167  0.00  0.00    +0.000 HD
ENDBRANCH  25  26
BRANCH  25  28
ATOM     28  C   UNL     1     -42.378 -17.763 -27.792  0.00  0.00    +0.000 C 
BRANCH  28  29
ATOM     29  O   UNL     1     -43.219 -16.731 -28.213  0.00  0.00    +0.000 OA
ATOM     30  H   UNL     1     -43.859 -17.077 -28.855  0.00  0.00    +0.000 HD
ENDBRANCH  28  29
BRANCH  28  31
ATOM     31  C   UNL     1     -41.780 -18.495 -28.988  0.00  0.00    +0.000 C 
BRANCH  31  32
ATOM     32  O   UNL     1     -42.633 -18.428 -30.090  0.00  0.00    +0.000 OA
ATOM     33  H   UNL     1     -43.281 -17.720 -29.955  0.00  0.00    +0.000 HD
ENDBRANCH  31  32
ENDBRANCH  28  31
ENDBRANCH  25  28
ENDBRANCH  22  25
ENDBRANCH  21  22
ENDBRANCH  18  21
TORSDOF 9
ENDMDL
MODEL 3
REMARK VINA RESULT:      -6.1     14.868     18.627
REMARK  Name = ZINC000005011747 PubChem-92247271
REMARK  9 active torsions:
REMARK  status: ('A' for Active; 'I' for Inactive)
REMARK    1  A    between atoms: N_18  and  C_21
REMARK    2  A    between atoms: C_21  and  C_22
REMARK    3  A    between atoms: C_22  and  O_23
REMARK    4  A    between atoms: C_22  and  C_25
REMARK    5  A    between atoms: C_25  and  O_26
REMARK    6  A    between atoms: C_25  and  C_28
REMARK    7  A    between atoms: C_28  and  O_29
REMARK    8  A    between atoms: C_28  and  C_31
REMARK    9  A    between atoms: C_31  and  O_32
REMARK                            x       y       z     vdW  Elec       q    Type
REMARK                         _______ _______ _______ _____ _____    ______ ____
ROOT
ATOM      1  C   UNL     1     -45.868  -7.171 -37.322  0.00  0.00    +0.000 C 
ATOM      2  C   UNL     1     -46.127  -7.407 -35.872  0.00  0.00    +0.000 A 
ATOM      3  C   UNL     1     -46.281  -6.304 -35.031  0.00  0.00    +0.000 A 
ATOM      4  C   UNL     1     -46.523  -6.465 -33.654  0.00  0.00    +0.000 A 
ATOM      5  C   UNL     1     -46.618  -7.780 -33.124  0.00  0.00    +0.000 A 
ATOM      6  C   UNL     1     -46.461  -8.881 -33.980  0.00  0.00    +0.000 A 
ATOM      7  C   UNL     1     -46.218  -8.704 -35.343  0.00  0.00    +0.000 A 
ATOM      8  C   UNL     1     -46.059  -9.911 -36.204  0.00  0.00    +0.000 C 
ATOM      9  N   UNL     1     -46.856  -7.980 -31.794  0.00  0.00    +0.000 N 
ATOM     10  C   UNL     1     -47.010  -6.913 -30.955  0.00  0.00    +0.000 A 
ATOM     11  C   UNL     1     -47.265  -7.029 -29.576  0.00  0.00    +0.000 A 
ATOM     12  O   UNL     1     -47.365  -8.155 -29.019  0.00  0.00    +0.000 OA
ATOM     13  N   UNL     1     -47.408  -5.907 -28.822  0.00  0.00    +0.000 N 
ATOM     14  C   UNL     1     -47.315  -4.659 -29.349  0.00  0.00    +0.000 A 
ATOM     15  O   UNL     1     -47.457  -3.654 -28.605  0.00  0.00    +0.000 OA
ATOM     16  N   UNL     1     -47.069  -4.485 -30.673  0.00  0.00    +0.000 NA
ATOM     17  C   UNL     1     -46.909  -5.547 -31.506  0.00  0.00    +0.000 A 
ATOM     18  N   UNL     1     -46.655  -5.373 -32.835  0.00  0.00    +0.000 N 
ATOM     19  O   UNL     1     -46.939  -9.269 -31.312  0.00  0.00    +0.000 OA
ATOM     20  H   UNL     1     -47.587  -6.003 -27.859  0.00  0.00    +0.000 HD
ENDROOT
BRANCH  18  21
ATOM     21  C   UNL     1     -46.534  -4.017 -33.383  0.00  0.00    +0.000 C 
BRANCH  21  22
ATOM     22  C   UNL     1     -45.092  -3.511 -33.340  0.00  0.00    +0.000 C 
BRANCH  22  23
ATOM     23  O   UNL     1     -44.345  -4.379 -32.541  0.00  0.00    +0.000 OA
ATOM     24  H   UNL     1     -44.035  -5.126 -33.076  0.00  0.00    +0.000 HD
ENDBRANCH  22  23
BRANCH  22  25
ATOM     25  C   UNL     1     -45.012  -2.084 -32.789  0.00  0.00    +0.000 C 
BRANCH  25  26
ATOM     26  O   UNL     1     -45.034  -2.096 -31.390  0.00  0.00    +0.000 OA
ATOM     27  H   UNL     1     -44.837  -2.990 -31.071  0.00  0.00    +0.000 HD
ENDBRANCH  25  26
BRANCH  25  28
ATOM     28  C   UNL     1     -43.747  -1.380 -33.286  0.00  0.00    +0.000 C 
BRANCH  28  29
ATOM     29  O   UNL     1     -43.184  -2.050 -34.375  0.00  0.00    +0.000 OA
ATOM     30  H   UNL     1     -42.702  -1.417 -34.930  0.00  0.00    +0.000 HD
ENDBRANCH  28  29
BRANCH  28  31
ATOM     31  C   UNL     1     -42.720  -1.196 -32.175  0.00  0.00    +0.000 C 
BRANCH  31  32
ATOM     32  O   UNL     1     -42.080  -2.402 -31.884  0.00  0.00    +0.000 OA
ATOM     33  H   UNL     1     -41.146  -2.233 -31.684  0.00  0.00    +0.000 HD
ENDBRANCH  31  32
ENDBRANCH  28  31
ENDBRANCH  25  28
ENDBRANCH  22  25
ENDBRANCH  21  22
ENDBRANCH  18  21
TORSDOF 9
ENDMDL
