MODEL 1
REMARK VINA RESULT:      -7.4      0.000      0.000
REMARK  Name = ZINC000031810529
REMARK  1 active torsions:
REMARK  status: ('A' for Active; 'I' for Inactive)
REMARK    1  A    between atoms: C_7  and  C_24
REMARK                            x       y       z     vdW  Elec       q    Type
REMARK                         _______ _______ _______ _____ _____    ______ ____
ROOT
ATOM      1  C   UNL     1     -43.119  -5.992 -34.894  0.00  0.00    +0.000 C 
ATOM      2  C   UNL     1     -43.850  -6.191 -33.612  0.00  0.00    +0.000 A 
ATOM      3  N   UNL     1     -43.704  -7.281 -32.837  0.00  0.00    +0.000 NA
ATOM      4  N   UNL     1     -44.486  -7.128 -31.781  0.00  0.00    +0.000 N 
ATOM      5  C   UNL     1     -45.116  -5.932 -31.846  0.00  0.00    +0.000 A 
ATOM      6  C   UNL     1     -44.742  -5.304 -33.033  0.00  0.00    +0.000 A 
ATOM      7  C   UNL     1     -45.089  -3.955 -33.602  0.00  0.00    +0.000 C 
ATOM      8  S   UNL     1     -46.761  -3.361 -33.196  0.00  0.00    +0.000 S 
ATOM      9  C   UNL     1     -46.315  -3.011 -31.479  0.00  0.00    +0.000 C 
ATOM     10  C   UNL     1     -46.619  -4.188 -30.628  0.00  0.00    +0.000 C 
ATOM     11  O   UNL     1     -47.449  -4.049 -29.692  0.00  0.00    +0.000 OA
ATOM     12  N   UNL     1     -45.981  -5.455 -30.801  0.00  0.00    +0.000 N 
ATOM     13  H   UNL     1     -46.163  -6.110 -30.088  0.00  0.00    +0.000 HD
ATOM     14  C   UNL     1     -44.555  -8.096 -30.725  0.00  0.00    +0.000 A 
ATOM     15  N   UNL     1     -43.421  -8.734 -30.306  0.00  0.00    +0.000 NA
ATOM     16  C   UNL     1     -43.456  -9.687 -29.320  0.00  0.00    +0.000 A 
ATOM     17  N   UNL     1     -44.641 -10.035 -28.736  0.00  0.00    +0.000 NA
ATOM     18  C   UNL     1     -45.768  -9.416 -29.159  0.00  0.00    +0.000 A 
ATOM     19  N   UNL     1     -47.017  -9.665 -28.749  0.00  0.00    +0.000 N 
ATOM     20  C   UNL     1     -47.753  -8.826 -29.528  0.00  0.00    +0.000 A 
ATOM     21  N   UNL     1     -47.011  -8.083 -30.395  0.00  0.00    +0.000 NA
ATOM     22  C   UNL     1     -45.758  -8.475 -30.127  0.00  0.00    +0.000 A 
ATOM     23  H   UNL     1     -47.326 -10.294 -28.059  0.00  0.00    +0.000 HD
ENDROOT
BRANCH   7  24
ATOM     24  C   UNL     1     -44.017  -2.912 -33.440  0.00  0.00    +0.000 A 
ATOM     25  C   UNL     1     -44.347  -1.564 -33.622  0.00  0.00    +0.000 A 
ATOM     26  C   UNL     1     -43.374  -0.573 -33.468  0.00  0.00    +0.000 A 
ATOM     27  C   UNL     1     -42.065  -0.923 -33.127  0.00  0.00    +0.000 A 
ATOM     28  F   UNL     1     -41.127   0.044 -32.978  0.00  0.00    +0.000 F 
ATOM     29  C   UNL     1     -41.728  -2.269 -32.939  0.00  0.00    +0.000 A 
ATOM     30  F   UNL     1     -40.461  -2.616 -32.607  0.00  0.00    +0.000 F 
ATOM     31  C   UNL     1     -42.701  -3.259 -33.093  0.00  0.00    +0.000 A 
ENDBRANCH   7  24
TORSDOF 1
ENDMDL
MODEL 2
REMARK VINA RESULT:      -7.3      3.918      7.303
REMARK  Name = ZINC000031810529
REMARK  1 active torsions:
REMARK  status: ('A' for Active; 'I' for Inactive)
REMARK    1  A    between atoms: C_7  and  C_24
REMARK                            x       y       z     vdW  Elec       q    Type
REMARK                         _______ _______ _______ _____ _____    ______ ____
ROOT
ATOM      1  C   UNL     1     -42.455  -6.788 -27.559  0.00  0.00    +0.000 C 
ATOM      2  C   UNL     1     -42.977  -6.114 -28.780  0.00  0.00    +0.000 A 
ATOM      3  N   UNL     1     -42.199  -5.744 -29.812  0.00  0.00    +0.000 NA
ATOM      4  N   UNL     1     -42.981  -5.188 -30.723  0.00  0.00    +0.000 N 
ATOM      5  C   UNL     1     -44.268  -5.223 -30.306  0.00  0.00    +0.000 A 
ATOM      6  C   UNL     1     -44.301  -5.801 -29.037  0.00  0.00    +0.000 A 
ATOM      7  C   UNL     1     -45.447  -6.134 -28.122  0.00  0.00    +0.000 C 
ATOM      8  S   UNL     1     -46.859  -4.989 -28.216  0.00  0.00    +0.000 S 
ATOM      9  C   UNL     1     -47.383  -5.630 -29.824  0.00  0.00    +0.000 C 
ATOM     10  C   UNL     1     -46.770  -4.828 -30.912  0.00  0.00    +0.000 C 
ATOM     11  O   UNL     1     -47.533  -4.218 -31.706  0.00  0.00    +0.000 OA
ATOM     12  N   UNL     1     -45.358  -4.754 -31.118  0.00  0.00    +0.000 N 
ATOM     13  H   UNL     1     -45.086  -4.308 -31.953  0.00  0.00    +0.000 HD
ATOM     14  C   UNL     1     -42.481  -4.703 -31.977  0.00  0.00    +0.000 A 
ATOM     15  N   UNL     1     -41.508  -5.397 -32.641  0.00  0.00    +0.000 NA
ATOM     16  C   UNL     1     -40.987  -4.946 -33.827  0.00  0.00    +0.000 A 
ATOM     17  N   UNL     1     -41.423  -3.771 -34.372  0.00  0.00    +0.000 NA
ATOM     18  C   UNL     1     -42.376  -3.074 -33.710  0.00  0.00    +0.000 A 
ATOM     19  N   UNL     1     -42.880  -1.884 -34.056  0.00  0.00    +0.000 N 
ATOM     20  C   UNL     1     -43.734  -1.618 -33.030  0.00  0.00    +0.000 A 
ATOM     21  N   UNL     1     -43.768  -2.588 -32.075  0.00  0.00    +0.000 NA
ATOM     22  C   UNL     1     -42.904  -3.499 -32.542  0.00  0.00    +0.000 A 
ATOM     23  H   UNL     1     -42.684  -1.339 -34.851  0.00  0.00    +0.000 HD
ENDROOT
BRANCH   7  24
ATOM     24  C   UNL     1     -45.841  -7.586 -28.112  0.00  0.00    +0.000 A 
ATOM     25  C   UNL     1     -46.610  -8.073 -27.049  0.00  0.00    +0.000 A 
ATOM     26  C   UNL     1     -47.000  -9.416 -27.020  0.00  0.00    +0.000 A 
ATOM     27  C   UNL     1     -46.625 -10.277 -28.054  0.00  0.00    +0.000 A 
ATOM     28  F   UNL     1     -47.007 -11.577 -28.018  0.00  0.00    +0.000 F 
ATOM     29  C   UNL     1     -45.859  -9.795 -29.122  0.00  0.00    +0.000 A 
ATOM     30  F   UNL     1     -45.493 -10.624 -30.129  0.00  0.00    +0.000 F 
ATOM     31  C   UNL     1     -45.470  -8.454 -29.151  0.00  0.00    +0.000 A 
ENDBRANCH   7  24
TORSDOF 1
ENDMDL
MODEL 3
REMARK VINA RESULT:      -7.3      4.127      7.485
REMARK  Name = ZINC000031810529
REMARK  1 active torsions:
REMARK  status: ('A' for Active; 'I' for Inactive)
REMARK    1  A    between atoms: C_7  and  C_24
REMARK                            x       y       z     vdW  Elec       q    Type
REMARK                         _______ _______ _______ _____ _____    ______ ____
ROOT
ATOM      1  C   UNL     1     -47.382  -4.503 -26.227  0.00  0.00    +0.000 C 
ATOM      2  C   UNL     1     -46.908  -4.743 -27.619  0.00  0.00    +0.000 A 
ATOM      3  N   UNL     1     -46.787  -3.770 -28.538  0.00  0.00    +0.000 NA
ATOM      4  N   UNL     1     -46.337  -4.326 -29.652  0.00  0.00    +0.000 N 
ATOM      5  C   UNL     1     -46.132  -5.649 -29.453  0.00  0.00    +0.000 A 
ATOM      6  C   UNL     1     -46.511  -5.960 -28.148  0.00  0.00    +0.000 A 
ATOM      7  C   UNL     1     -46.459  -7.248 -27.373  0.00  0.00    +0.000 C 
ATOM      8  S   UNL     1     -46.716  -8.750 -28.368  0.00  0.00    +0.000 S 
ATOM      9  C   UNL     1     -45.080  -8.630 -29.130  0.00  0.00    +0.000 C 
ATOM     10  C   UNL     1     -45.169  -7.874 -30.404  0.00  0.00    +0.000 C 
ATOM     11  O   UNL     1     -44.836  -8.457 -31.468  0.00  0.00    +0.000 OA
ATOM     12  N   UNL     1     -45.577  -6.506 -30.466  0.00  0.00    +0.000 N 
ATOM     13  H   UNL     1     -45.459  -6.080 -31.345  0.00  0.00    +0.000 HD
ATOM     14  C   UNL     1     -46.062  -3.566 -30.837  0.00  0.00    +0.000 A 
ATOM     15  N   UNL     1     -45.493  -2.326 -30.739  0.00  0.00    +0.000 NA
ATOM     16  C   UNL     1     -45.245  -1.561 -31.850  0.00  0.00    +0.000 A 
ATOM     17  N   UNL     1     -45.575  -2.019 -33.094  0.00  0.00    +0.000 NA
ATOM     18  C   UNL     1     -46.150  -3.240 -33.193  0.00  0.00    +0.000 A 
ATOM     19  N   UNL     1     -46.592  -3.827 -34.312  0.00  0.00    +0.000 N 
ATOM     20  C   UNL     1     -47.128  -4.987 -33.843  0.00  0.00    +0.000 A 
ATOM     21  N   UNL     1     -47.038  -5.130 -32.492  0.00  0.00    +0.000 NA
ATOM     22  C   UNL     1     -46.404  -4.012 -32.114  0.00  0.00    +0.000 A 
ATOM     23  H   UNL     1     -46.542  -3.502 -35.239  0.00  0.00    +0.000 HD
ENDROOT
BRANCH   7  24
ATOM     24  C   UNL     1     -45.315  -7.349 -26.402  0.00  0.00    +0.000 A 
ATOM     25  C   UNL     1     -45.534  -7.942 -25.153  0.00  0.00    +0.000 A 
ATOM     26  C   UNL     1     -44.487  -8.060 -24.235  0.00  0.00    +0.000 A 
ATOM     27  C   UNL     1     -43.212  -7.589 -24.562  0.00  0.00    +0.000 A 
ATOM     28  F   UNL     1     -42.201  -7.708 -23.667  0.00  0.00    +0.000 F 
ATOM     29  C   UNL     1     -42.984  -6.999 -25.811  0.00  0.00    +0.000 A 
ATOM     30  F   UNL     1     -41.750  -6.542 -26.136  0.00  0.00    +0.000 F 
ATOM     31  C   UNL     1     -44.031  -6.882 -26.728  0.00  0.00    +0.000 A 
ENDBRANCH   7  24
TORSDOF 1
ENDMDL
