MODEL 1
REMARK VINA RESULT:      -6.4      0.000      0.000
REMARK  Name = ZINC000021788064 ZINC21788064
REMARK  6 active torsions:
REMARK  status: ('A' for Active; 'I' for Inactive)
REMARK    1  A    between atoms: N_5  and  C_14
REMARK    2  A    between atoms: C_12  and  C_21
REMARK    3  A    between atoms: C_24  and  O_29
REMARK    4  A    between atoms: C_25  and  O_27
REMARK    5  A    between atoms: O_29  and  C_30
REMARK    6  A    between atoms: C_30  and  C_31
REMARK                            x       y       z     vdW  Elec       q    Type
REMARK                         _______ _______ _______ _____ _____    ______ ____
ROOT
ATOM      1  C   UNL     1     -42.671  -7.315 -29.823  0.00  0.00    +0.000 C 
ATOM      2  C   UNL     1     -43.463  -6.347 -30.632  0.00  0.00    +0.000 A 
ATOM      3  C   UNL     1     -44.466  -6.635 -31.560  0.00  0.00    +0.000 A 
ATOM      4  C   UNL     1     -44.763  -5.377 -32.103  0.00  0.00    +0.000 A 
ATOM      5  N   UNL     1     -44.025  -4.437 -31.466  0.00  0.00    +0.000 N 
ATOM      6  N   UNL     1     -43.230  -5.025 -30.587  0.00  0.00    +0.000 NA
ATOM      7  N   UNL     1     -45.635  -5.053 -33.201  0.00  0.00    +0.000 N 
ATOM      8  C   UNL     1     -46.275  -5.898 -34.161  0.00  0.00    +0.000 C 
ATOM      9  O   UNL     1     -47.009  -5.377 -35.039  0.00  0.00    +0.000 OA
ATOM     10  C   UNL     1     -46.100  -7.368 -34.164  0.00  0.00    +0.000 C 
ATOM     11  S   UNL     1     -46.669  -8.009 -32.580  0.00  0.00    +0.000 S 
ATOM     12  C   UNL     1     -44.957  -8.014 -31.975  0.00  0.00    +0.000 C 
ATOM     13  H   UNL     1     -45.821  -4.091 -33.309  0.00  0.00    +0.000 HD
ENDROOT
BRANCH   5  14
ATOM     14  C   UNL     1     -44.016  -3.012 -31.683  0.00  0.00    +0.000 A 
ATOM     15  C   UNL     1     -45.119  -2.210 -31.345  0.00  0.00    +0.000 A 
ATOM     16  C   UNL     1     -45.086  -0.828 -31.550  0.00  0.00    +0.000 A 
ATOM     17  C   UNL     1     -43.948  -0.230 -32.095  0.00  0.00    +0.000 A 
ATOM     18  C   UNL     1     -42.843  -1.015 -32.432  0.00  0.00    +0.000 A 
ATOM     19  C   UNL     1     -42.876  -2.396 -32.225  0.00  0.00    +0.000 A 
ATOM     20 CL   UNL     1     -41.414  -0.267 -33.114  0.00  0.00    +0.000 Cl
ENDBRANCH   5  14
BRANCH  12  21
ATOM     21  C   UNL     1     -44.831  -9.055 -30.903  0.00  0.00    +0.000 A 
ATOM     22  C   UNL     1     -43.895 -10.093 -31.005  0.00  0.00    +0.000 A 
ATOM     23  C   UNL     1     -43.799 -11.051 -29.996  0.00  0.00    +0.000 A 
ATOM     24  C   UNL     1     -44.637 -10.986 -28.871  0.00  0.00    +0.000 A 
ATOM     25  C   UNL     1     -45.572  -9.944 -28.762  0.00  0.00    +0.000 A 
ATOM     26  C   UNL     1     -45.662  -8.983 -29.782  0.00  0.00    +0.000 A 
BRANCH  25  27
ATOM     27  O   UNL     1     -46.401  -9.884 -27.635  0.00  0.00    +0.000 OA
ATOM     28  C   UNL     1     -46.116  -9.060 -26.514  0.00  0.00    +0.000 C 
ENDBRANCH  25  27
BRANCH  24  29
ATOM     29  O   UNL     1     -44.555 -11.940 -27.848  0.00  0.00    +0.000 OA
BRANCH  29  30
ATOM     30  C   UNL     1     -45.093 -13.254 -27.958  0.00  0.00    +0.000 C 
BRANCH  30  31
ATOM     31  C   UNL     1     -46.442 -13.314 -27.328  0.00  0.00    +0.000 C 
ATOM     32  O   UNL     1     -46.588 -13.860 -26.203  0.00  0.00    +0.000 OA
ATOM     33  N   UNL     1     -47.570 -12.771 -28.005  0.00  0.00    +0.000 N 
ATOM     34  H   UNL     1     -47.457 -12.344 -28.884  0.00  0.00    +0.000 HD
ATOM     35  H   UNL     1     -48.463 -12.823 -27.593  0.00  0.00    +0.000 HD
ENDBRANCH  30  31
ENDBRANCH  29  30
ENDBRANCH  24  29
ENDBRANCH  12  21
TORSDOF 6
ENDMDL
MODEL 2
REMARK VINA RESULT:      -6.2      4.196      8.729
REMARK  Name = ZINC000021788064 ZINC21788064
REMARK  6 active torsions:
REMARK  status: ('A' for Active; 'I' for Inactive)
REMARK    1  A    between atoms: N_5  and  C_14
REMARK    2  A    between atoms: C_12  and  C_21
REMARK    3  A    between atoms: C_24  and  O_29
REMARK    4  A    between atoms: C_25  and  O_27
REMARK    5  A    between atoms: O_29  and  C_30
REMARK    6  A    between atoms: C_30  and  C_31
REMARK                            x       y       z     vdW  Elec       q    Type
REMARK                         _______ _______ _______ _____ _____    ______ ____
ROOT
ATOM      1  C   UNL     1     -47.013  -4.304 -28.550  0.00  0.00    +0.000 C 
ATOM      2  C   UNL     1     -46.713  -5.458 -27.657  0.00  0.00    +0.000 A 
ATOM      3  C   UNL     1     -46.388  -6.763 -28.035  0.00  0.00    +0.000 A 
ATOM      4  C   UNL     1     -46.341  -7.443 -26.810  0.00  0.00    +0.000 A 
ATOM      5  N   UNL     1     -46.555  -6.558 -25.807  0.00  0.00    +0.000 N 
ATOM      6  N   UNL     1     -46.794  -5.363 -26.320  0.00  0.00    +0.000 NA
ATOM      7  N   UNL     1     -46.175  -8.852 -26.567  0.00  0.00    +0.000 N 
ATOM      8  C   UNL     1     -46.209  -9.961 -27.470  0.00  0.00    +0.000 C 
ATOM      9  O   UNL     1     -46.027 -11.120 -27.018  0.00  0.00    +0.000 OA
ATOM     10  C   UNL     1     -46.460  -9.796 -28.919  0.00  0.00    +0.000 C 
ATOM     11  S   UNL     1     -45.177  -8.731 -29.598  0.00  0.00    +0.000 S 
ATOM     12  C   UNL     1     -46.293  -7.306 -29.453  0.00  0.00    +0.000 C 
ATOM     13  H   UNL     1     -46.009  -9.091 -25.626  0.00  0.00    +0.000 HD
ENDROOT
BRANCH   5  14
ATOM     14  C   UNL     1     -46.580  -6.809 -24.387  0.00  0.00    +0.000 A 
ATOM     15  C   UNL     1     -47.756  -7.211 -23.732  0.00  0.00    +0.000 A 
ATOM     16  C   UNL     1     -47.756  -7.462 -22.358  0.00  0.00    +0.000 A 
ATOM     17  C   UNL     1     -46.580  -7.316 -21.620  0.00  0.00    +0.000 A 
ATOM     18  C   UNL     1     -45.402  -6.921 -22.260  0.00  0.00    +0.000 A 
ATOM     19  C   UNL     1     -45.402  -6.671 -23.635  0.00  0.00    +0.000 A 
ATOM     20 CL   UNL     1     -43.925  -6.737 -21.338  0.00  0.00    +0.000 Cl
ENDBRANCH   5  14
BRANCH  12  21
ATOM     21  C   UNL     1     -45.896  -6.281 -30.474  0.00  0.00    +0.000 A 
ATOM     22  C   UNL     1     -46.798  -5.846 -31.454  0.00  0.00    +0.000 A 
ATOM     23  C   UNL     1     -46.404  -4.894 -32.395  0.00  0.00    +0.000 A 
ATOM     24  C   UNL     1     -45.104  -4.364 -32.369  0.00  0.00    +0.000 A 
ATOM     25  C   UNL     1     -44.199  -4.793 -31.385  0.00  0.00    +0.000 A 
ATOM     26  C   UNL     1     -44.604  -5.751 -30.441  0.00  0.00    +0.000 A 
BRANCH  25  27
ATOM     27  O   UNL     1     -42.907  -4.256 -31.364  0.00  0.00    +0.000 OA
ATOM     28  C   UNL     1     -41.779  -4.946 -31.885  0.00  0.00    +0.000 C 
ENDBRANCH  25  27
BRANCH  24  29
ATOM     29  O   UNL     1     -44.691  -3.408 -33.306  0.00  0.00    +0.000 OA
BRANCH  29  30
ATOM     30  C   UNL     1     -45.107  -2.046 -33.269  0.00  0.00    +0.000 C 
BRANCH  30  31
ATOM     31  C   UNL     1     -44.619  -1.390 -32.023  0.00  0.00    +0.000 C 
ATOM     32  O   UNL     1     -45.427  -1.124 -31.095  0.00  0.00    +0.000 OA
ATOM     33  N   UNL     1     -43.245  -1.048 -31.888  0.00  0.00    +0.000 N 
ATOM     34  H   UNL     1     -42.613  -1.257 -32.614  0.00  0.00    +0.000 HD
ATOM     35  H   UNL     1     -42.927  -0.604 -31.070  0.00  0.00    +0.000 HD
ENDBRANCH  30  31
ENDBRANCH  29  30
ENDBRANCH  24  29
ENDBRANCH  12  21
TORSDOF 6
ENDMDL
MODEL 3
REMARK VINA RESULT:      -6.1      3.008      4.141
REMARK  Name = ZINC000021788064 ZINC21788064
REMARK  6 active torsions:
REMARK  status: ('A' for Active; 'I' for Inactive)
REMARK    1  A    between atoms: N_5  and  C_14
REMARK    2  A    between atoms: C_12  and  C_21
REMARK    3  A    between atoms: C_24  and  O_29
REMARK    4  A    between atoms: C_25  and  O_27
REMARK    5  A    between atoms: O_29  and  C_30
REMARK    6  A    between atoms: C_30  and  C_31
REMARK                            x       y       z     vdW  Elec       q    Type
REMARK                         _______ _______ _______ _____ _____    ______ ____
ROOT
ATOM      1  C   UNL     1     -46.086  -9.051 -29.887  0.00  0.00    +0.000 C 
ATOM      2  C   UNL     1     -46.071  -7.563 -29.820  0.00  0.00    +0.000 A 
ATOM      3  C   UNL     1     -46.330  -6.759 -28.708  0.00  0.00    +0.000 A 
ATOM      4  C   UNL     1     -46.307  -5.464 -29.243  0.00  0.00    +0.000 A 
ATOM      5  N   UNL     1     -45.984  -5.536 -30.556  0.00  0.00    +0.000 N 
ATOM      6  N   UNL     1     -45.856  -6.804 -30.907  0.00  0.00    +0.000 NA
ATOM      7  N   UNL     1     -46.631  -4.217 -28.600  0.00  0.00    +0.000 N 
ATOM      8  C   UNL     1     -47.244  -3.956 -27.335  0.00  0.00    +0.000 C 
ATOM      9  O   UNL     1     -47.422  -2.763 -26.978  0.00  0.00    +0.000 OA
ATOM     10  C   UNL     1     -47.686  -5.040 -26.428  0.00  0.00    +0.000 C 
ATOM     11  S   UNL     1     -46.253  -6.048 -26.011  0.00  0.00    +0.000 S 
ATOM     12  C   UNL     1     -46.713  -7.228 -27.312  0.00  0.00    +0.000 C 
ATOM     13  H   UNL     1     -46.390  -3.413 -29.115  0.00  0.00    +0.000 HD
ENDROOT
BRANCH   5  14
ATOM     14  C   UNL     1     -45.830  -4.454 -31.497  0.00  0.00    +0.000 A 
ATOM     15  C   UNL     1     -46.803  -4.186 -32.475  0.00  0.00    +0.000 A 
ATOM     16  C   UNL     1     -46.642  -3.125 -33.369  0.00  0.00    +0.000 A 
ATOM     17  C   UNL     1     -45.506  -2.316 -33.296  0.00  0.00    +0.000 A 
ATOM     18  C   UNL     1     -44.534  -2.568 -32.326  0.00  0.00    +0.000 A 
ATOM     19  C   UNL     1     -44.696  -3.629 -31.431  0.00  0.00    +0.000 A 
ATOM     20 CL   UNL     1     -43.109  -1.555 -32.232  0.00  0.00    +0.000 Cl
ENDBRANCH   5  14
BRANCH  12  21
ATOM     21  C   UNL     1     -46.167  -8.577 -26.950  0.00  0.00    +0.000 A 
ATOM     22  C   UNL     1     -44.862  -8.725 -26.461  0.00  0.00    +0.000 A 
ATOM     23  C   UNL     1     -44.376  -9.991 -26.134  0.00  0.00    +0.000 A 
ATOM     24  C   UNL     1     -45.187 -11.127 -26.292  0.00  0.00    +0.000 A 
ATOM     25  C   UNL     1     -46.497 -10.982 -26.777  0.00  0.00    +0.000 A 
ATOM     26  C   UNL     1     -46.979  -9.704 -27.103  0.00  0.00    +0.000 A 
BRANCH  25  27
ATOM     27  O   UNL     1     -47.299 -12.119 -26.928  0.00  0.00    +0.000 OA
ATOM     28  C   UNL     1     -47.381 -12.847 -28.145  0.00  0.00    +0.000 C 
ENDBRANCH  25  27
BRANCH  24  29
ATOM     29  O   UNL     1     -44.715 -12.406 -25.970  0.00  0.00    +0.000 OA
BRANCH  29  30
ATOM     30  C   UNL     1     -44.610 -12.888 -24.634  0.00  0.00    +0.000 C 
BRANCH  30  31
ATOM     31  C   UNL     1     -45.750 -13.794 -24.320  0.00  0.00    +0.000 C 
ATOM     32  O   UNL     1     -46.257 -13.793 -23.167  0.00  0.00    +0.000 OA
ATOM     33  N   UNL     1     -46.256 -14.674 -25.316  0.00  0.00    +0.000 N 
ATOM     34  H   UNL     1     -45.862 -14.675 -26.218  0.00  0.00    +0.000 HD
ATOM     35  H   UNL     1     -47.001 -15.281 -25.104  0.00  0.00    +0.000 HD
ENDBRANCH  30  31
ENDBRANCH  29  30
ENDBRANCH  24  29
ENDBRANCH  12  21
TORSDOF 6
ENDMDL
