MODEL 1
REMARK VINA RESULT:      -6.4      0.000      0.000
REMARK  Name = ZINC000018195610 ZINC18195610
REMARK  2 active torsions:
REMARK  status: ('A' for Active; 'I' for Inactive)
REMARK    1  A    between atoms: C_6  and  C_21
REMARK    2  A    between atoms: C_11  and  O_12
REMARK                            x       y       z     vdW  Elec       q    Type
REMARK                         _______ _______ _______ _____ _____    ______ ____
ROOT
ATOM      1  C   UNL     1     -45.307  -7.297 -30.815  0.00  0.00    +0.000 C 
ATOM      2  C   UNL     1     -46.597  -6.828 -31.472  0.00  0.00    +0.000 C 
ATOM      3  C   UNL     1     -46.946  -5.414 -31.005  0.00  0.00    +0.000 C 
ATOM      4  C   UNL     1     -46.049  -4.346 -31.578  0.00  0.00    +0.000 C 
ATOM      5  C   UNL     1     -45.383  -4.531 -32.758  0.00  0.00    +0.000 C 
ATOM      6  C   UNL     1     -44.423  -3.476 -33.324  0.00  0.00    +0.000 C 
ATOM      7  C   UNL     1     -44.544  -2.173 -32.598  0.00  0.00    +0.000 A 
ATOM      8  C   UNL     1     -45.235  -2.028 -31.444  0.00  0.00    +0.000 A 
ATOM      9  N   UNL     1     -45.131  -0.776 -30.962  0.00  0.00    +0.000 N 
ATOM     10  N   UNL     1     -44.357  -0.099 -31.806  0.00  0.00    +0.000 NA
ATOM     11  C   UNL     1     -43.988  -0.934 -32.801  0.00  0.00    +0.000 A 
ATOM     12  N   UNL     1     -45.982  -3.094 -30.873  0.00  0.00    +0.000 N 
ATOM     13  C   UNL     1     -45.560  -5.797 -33.508  0.00  0.00    +0.000 C 
ATOM     14  O   UNL     1     -44.984  -5.968 -34.615  0.00  0.00    +0.000 OA
ATOM     15  C   UNL     1     -46.468  -6.873 -32.993  0.00  0.00    +0.000 C 
ATOM     16  C   UNL     1     -47.710  -7.763 -31.053  0.00  0.00    +0.000 C 
ATOM     17  H   UNL     1     -45.549  -0.428 -30.142  0.00  0.00    +0.000 HD
ATOM     18  H   UNL     1     -46.445  -2.977 -30.012  0.00  0.00    +0.000 HD
ENDROOT
BRANCH   6  19
ATOM     19  C   UNL     1     -43.003  -3.962 -33.295  0.00  0.00    +0.000 A 
ATOM     20  C   UNL     1     -42.441  -4.511 -32.135  0.00  0.00    +0.000 A 
ATOM     21  C   UNL     1     -41.113  -4.944 -32.142  0.00  0.00    +0.000 A 
ATOM     22  C   UNL     1     -40.362  -4.817 -33.311  0.00  0.00    +0.000 A 
ATOM     23  N   UNL     1     -40.922  -4.278 -34.428  0.00  0.00    +0.000 NA
ATOM     24  C   UNL     1     -42.213  -3.850 -34.442  0.00  0.00    +0.000 A 
ENDBRANCH   6  19
BRANCH  11  25
ATOM     25  O   UNL     1     -43.161  -0.572 -33.858  0.00  0.00    +0.000 OA
ATOM     26  H   UNL     1     -42.860   0.312 -33.934  0.00  0.00    +0.000 HD
ENDBRANCH  11  25
TORSDOF 2
ENDMDL
MODEL 2
REMARK VINA RESULT:      -6.2      2.932      5.893
REMARK  Name = ZINC000018195610 ZINC18195610
REMARK  2 active torsions:
REMARK  status: ('A' for Active; 'I' for Inactive)
REMARK    1  A    between atoms: C_6  and  C_21
REMARK    2  A    between atoms: C_11  and  O_12
REMARK                            x       y       z     vdW  Elec       q    Type
REMARK                         _______ _______ _______ _____ _____    ______ ____
ROOT
ATOM      1  C   UNL     1     -42.673  -2.426 -32.091  0.00  0.00    +0.000 C 
ATOM      2  C   UNL     1     -43.944  -1.860 -32.705  0.00  0.00    +0.000 C 
ATOM      3  C   UNL     1     -44.557  -2.869 -33.679  0.00  0.00    +0.000 C 
ATOM      4  C   UNL     1     -45.192  -4.057 -33.002  0.00  0.00    +0.000 C 
ATOM      5  C   UNL     1     -45.649  -3.987 -31.716  0.00  0.00    +0.000 C 
ATOM      6  C   UNL     1     -46.245  -5.203 -30.996  0.00  0.00    +0.000 C 
ATOM      7  C   UNL     1     -46.515  -6.329 -31.945  0.00  0.00    +0.000 A 
ATOM      8  C   UNL     1     -46.065  -6.347 -33.221  0.00  0.00    +0.000 A 
ATOM      9  N   UNL     1     -46.385  -7.499 -33.839  0.00  0.00    +0.000 N 
ATOM     10  N   UNL     1     -47.044  -8.243 -32.955  0.00  0.00    +0.000 NA
ATOM     11  C   UNL     1     -47.126  -7.549 -31.799  0.00  0.00    +0.000 A 
ATOM     12  N   UNL     1     -45.370  -5.247 -33.792  0.00  0.00    +0.000 N 
ATOM     13  C   UNL     1     -45.541  -2.710 -30.971  0.00  0.00    +0.000 C 
ATOM     14  O   UNL     1     -45.991  -2.617 -29.797  0.00  0.00    +0.000 OA
ATOM     15  C   UNL     1     -44.947  -1.493 -31.613  0.00  0.00    +0.000 C 
ATOM     16  C   UNL     1     -43.585  -0.607 -33.472  0.00  0.00    +0.000 C 
ATOM     17  H   UNL     1     -46.173  -7.743 -34.769  0.00  0.00    +0.000 HD
ATOM     18  H   UNL     1     -45.016  -5.299 -34.709  0.00  0.00    +0.000 HD
ENDROOT
BRANCH   6  19
ATOM     19  C   UNL     1     -45.356  -5.664 -29.878  0.00  0.00    +0.000 A 
ATOM     20  C   UNL     1     -43.983  -5.868 -30.070  0.00  0.00    +0.000 A 
ATOM     21  C   UNL     1     -43.188  -6.305 -29.009  0.00  0.00    +0.000 A 
ATOM     22  C   UNL     1     -43.779  -6.538 -27.766  0.00  0.00    +0.000 A 
ATOM     23  N   UNL     1     -45.115  -6.339 -27.597  0.00  0.00    +0.000 NA
ATOM     24  C   UNL     1     -45.906  -5.913 -28.618  0.00  0.00    +0.000 A 
ENDBRANCH   6  19
BRANCH  11  25
ATOM     25  O   UNL     1     -47.736  -8.025 -30.645  0.00  0.00    +0.000 OA
ATOM     26  H   UNL     1     -48.624  -8.325 -30.673  0.00  0.00    +0.000 HD
ENDBRANCH  11  25
TORSDOF 2
ENDMDL
MODEL 3
REMARK VINA RESULT:      -5.9     14.611     17.062
REMARK  Name = ZINC000018195610 ZINC18195610
REMARK  2 active torsions:
REMARK  status: ('A' for Active; 'I' for Inactive)
REMARK    1  A    between atoms: C_6  and  C_21
REMARK    2  A    between atoms: C_11  and  O_12
REMARK                            x       y       z     vdW  Elec       q    Type
REMARK                         _______ _______ _______ _____ _____    ______ ____
ROOT
ATOM      1  C   UNL     1     -44.046 -16.221 -19.188  0.00  0.00    +0.000 C 
ATOM      2  C   UNL     1     -45.554 -16.159 -19.381  0.00  0.00    +0.000 C 
ATOM      3  C   UNL     1     -45.895 -15.349 -20.633  0.00  0.00    +0.000 C 
ATOM      4  C   UNL     1     -45.573 -16.060 -21.922  0.00  0.00    +0.000 C 
ATOM      5  C   UNL     1     -45.508 -17.424 -21.989  0.00  0.00    +0.000 C 
ATOM      6  C   UNL     1     -45.126 -18.159 -23.280  0.00  0.00    +0.000 C 
ATOM      7  C   UNL     1     -45.129 -17.238 -24.461  0.00  0.00    +0.000 A 
ATOM      8  C   UNL     1     -45.222 -15.892 -24.352  0.00  0.00    +0.000 A 
ATOM      9  N   UNL     1     -45.133 -15.294 -25.554  0.00  0.00    +0.000 N 
ATOM     10  N   UNL     1     -44.973 -16.259 -26.456  0.00  0.00    +0.000 NA
ATOM     11  C   UNL     1     -44.964 -17.444 -25.808  0.00  0.00    +0.000 A 
ATOM     12  N   UNL     1     -45.415 -15.248 -23.100  0.00  0.00    +0.000 N 
ATOM     13  C   UNL     1     -45.781 -18.229 -20.775  0.00  0.00    +0.000 C 
ATOM     14  O   UNL     1     -45.762 -19.488 -20.827  0.00  0.00    +0.000 OA
ATOM     15  C   UNL     1     -46.137 -17.567 -19.478  0.00  0.00    +0.000 C 
ATOM     16  C   UNL     1     -46.158 -15.467 -18.179  0.00  0.00    +0.000 C 
ATOM     17  H   UNL     1     -45.180 -14.327 -25.732  0.00  0.00    +0.000 HD
ATOM     18  H   UNL     1     -45.438 -14.266 -23.040  0.00  0.00    +0.000 HD
ENDROOT
BRANCH   6  19
ATOM     19  C   UNL     1     -43.792 -18.835 -23.148  0.00  0.00    +0.000 A 
ATOM     20  C   UNL     1     -43.620 -20.186 -23.478  0.00  0.00    +0.000 A 
ATOM     21  C   UNL     1     -42.367 -20.784 -23.334  0.00  0.00    +0.000 A 
ATOM     22  C   UNL     1     -41.299 -20.021 -22.856  0.00  0.00    +0.000 A 
ATOM     23  N   UNL     1     -41.484 -18.711 -22.538  0.00  0.00    +0.000 NA
ATOM     24  C   UNL     1     -42.697 -18.111 -22.671  0.00  0.00    +0.000 A 
ENDBRANCH   6  19
BRANCH  11  25
ATOM     25  O   UNL     1     -44.799 -18.674 -26.433  0.00  0.00    +0.000 OA
ATOM     26  H   UNL     1     -44.731 -18.719 -27.367  0.00  0.00    +0.000 HD
ENDBRANCH  11  25
TORSDOF 2
ENDMDL
