MODEL 1
REMARK VINA RESULT:      -6.1      0.000      0.000
REMARK  Name = ZINC000009112329 ZINC09112329 PubChem-40938212
REMARK  5 active torsions:
REMARK  status: ('A' for Active; 'I' for Inactive)
REMARK    1  A    between atoms: N_1  and  C_10
REMARK    2  A    between atoms: C_2  and  C_18
REMARK    3  A    between atoms: C_5  and  O_15
REMARK    4  A    between atoms: O_15  and  C_17
REMARK    5  A    between atoms: C_19  and  C_20
REMARK                            x       y       z     vdW  Elec       q    Type
REMARK                         _______ _______ _______ _____ _____    ______ ____
ROOT
ATOM      1  N   UNL     1     -46.505  -6.291 -32.165  0.00  0.00    +0.000 N 
ATOM      2  C   UNL     1     -46.547  -4.975 -31.599  0.00  0.00    +0.000 C 
ATOM      3  O   UNL     1     -46.707  -3.988 -32.367  0.00  0.00    +0.000 OA
ATOM      4  H   UNL     1     -46.830  -6.381 -33.090  0.00  0.00    +0.000 HD
ENDROOT
BRANCH   1  10
ATOM      5  C   UNL     1     -44.644  -7.701 -31.300  0.00  0.00    +0.000 A 
ATOM      6  C   UNL     1     -44.220  -8.849 -30.603  0.00  0.00    +0.000 A 
ATOM      7  C   UNL     1     -45.172  -9.760 -30.161  0.00  0.00    +0.000 A 
ATOM      8  C   UNL     1     -46.498  -9.569 -30.391  0.00  0.00    +0.000 A 
ATOM      9  C   UNL     1     -46.967  -8.446 -31.061  0.00  0.00    +0.000 A 
ATOM     10  C   UNL     1     -46.039  -7.493 -31.531  0.00  0.00    +0.000 A 
ATOM     11  O   UNL     1     -47.252 -10.593 -29.863  0.00  0.00    +0.000 OA
ATOM     12  C   UNL     1     -46.403 -11.558 -29.241  0.00  0.00    +0.000 C 
ATOM     13  C   UNL     1     -44.963 -11.030 -29.417  0.00  0.00    +0.000 C 
ATOM     14  C   UNL     1     -46.738 -11.653 -27.766  0.00  0.00    +0.000 C 
BRANCH   5  15
ATOM     15  O   UNL     1     -43.638  -6.830 -31.749  0.00  0.00    +0.000 OA
BRANCH  15  17
ATOM     16  C   UNL     1     -42.899  -4.581 -31.367  0.00  0.00    +0.000 C 
ATOM     17  C   UNL     1     -42.831  -6.023 -30.903  0.00  0.00    +0.000 C 
ENDBRANCH  15  17
ENDBRANCH   5  15
ENDBRANCH   1  10
BRANCH   2  18
ATOM     18  C   UNL     1     -46.456  -4.766 -30.145  0.00  0.00    +0.000 C 
ATOM     19  C   UNL     1     -47.486  -4.341 -29.423  0.00  0.00    +0.000 C 
BRANCH  19  20
ATOM     20  C   UNL     1     -47.379  -4.147 -27.972  0.00  0.00    +0.000 A 
ATOM     21  C   UNL     1     -47.150  -5.157 -27.031  0.00  0.00    +0.000 A 
ATOM     22  C   UNL     1     -47.148  -4.469 -25.838  0.00  0.00    +0.000 A 
ATOM     23  C   UNL     1     -46.966  -4.931 -24.538  0.00  0.00    +0.000 A 
ATOM     24  C   UNL     1     -47.011  -3.985 -23.499  0.00  0.00    +0.000 A 
ATOM     25  C   UNL     1     -47.228  -2.621 -23.780  0.00  0.00    +0.000 A 
ATOM     26  C   UNL     1     -47.406  -2.184 -25.106  0.00  0.00    +0.000 A 
ATOM     27  C   UNL     1     -47.361  -3.145 -26.110  0.00  0.00    +0.000 A 
ATOM     28  O   UNL     1     -47.501  -2.966 -27.397  0.00  0.00    +0.000 OA
ENDBRANCH  19  20
ENDBRANCH   2  18
TORSDOF 5
ENDMDL
MODEL 2
REMARK VINA RESULT:      -6.0      3.470      6.529
REMARK  Name = ZINC000009112329 ZINC09112329 PubChem-40938212
REMARK  5 active torsions:
REMARK  status: ('A' for Active; 'I' for Inactive)
REMARK    1  A    between atoms: N_1  and  C_10
REMARK    2  A    between atoms: C_2  and  C_18
REMARK    3  A    between atoms: C_5  and  O_15
REMARK    4  A    between atoms: O_15  and  C_17
REMARK    5  A    between atoms: C_19  and  C_20
REMARK                            x       y       z     vdW  Elec       q    Type
REMARK                         _______ _______ _______ _____ _____    ______ ____
ROOT
ATOM      1  N   UNL     1     -47.301  -4.614 -32.024  0.00  0.00    +0.000 N 
ATOM      2  C   UNL     1     -46.758  -3.689 -32.975  0.00  0.00    +0.000 C 
ATOM      3  O   UNL     1     -47.536  -3.139 -33.800  0.00  0.00    +0.000 OA
ATOM      4  H   UNL     1     -48.280  -4.603 -31.912  0.00  0.00    +0.000 HD
ENDROOT
BRANCH   1  10
ATOM      5  C   UNL     1     -46.216  -6.837 -31.743  0.00  0.00    +0.000 A 
ATOM      6  C   UNL     1     -45.432  -7.710 -30.963  0.00  0.00    +0.000 A 
ATOM      7  C   UNL     1     -45.032  -7.307 -29.694  0.00  0.00    +0.000 A 
ATOM      8  C   UNL     1     -45.384  -6.094 -29.191  0.00  0.00    +0.000 A 
ATOM      9  C   UNL     1     -46.143  -5.192 -29.926  0.00  0.00    +0.000 A 
ATOM     10  C   UNL     1     -46.575  -5.556 -31.219  0.00  0.00    +0.000 A 
ATOM     11  O   UNL     1     -44.876  -5.910 -27.925  0.00  0.00    +0.000 OA
ATOM     12  C   UNL     1     -44.139  -7.063 -27.519  0.00  0.00    +0.000 C 
ATOM     13  C   UNL     1     -44.215  -8.052 -28.701  0.00  0.00    +0.000 C 
ATOM     14  C   UNL     1     -42.696  -6.679 -27.262  0.00  0.00    +0.000 C 
BRANCH   5  15
ATOM     15  O   UNL     1     -46.616  -7.307 -33.003  0.00  0.00    +0.000 OA
BRANCH  15  17
ATOM     16  C   UNL     1     -46.057  -6.573 -35.217  0.00  0.00    +0.000 C 
ATOM     17  C   UNL     1     -45.738  -7.542 -34.095  0.00  0.00    +0.000 C 
ENDBRANCH  15  17
ENDBRANCH   5  15
ENDBRANCH   1  10
BRANCH   2  18
ATOM     18  C   UNL     1     -45.329  -3.338 -32.968  0.00  0.00    +0.000 C 
ATOM     19  C   UNL     1     -44.900  -2.112 -32.689  0.00  0.00    +0.000 C 
BRANCH  19  20
ATOM     20  C   UNL     1     -43.470  -1.783 -32.678  0.00  0.00    +0.000 A 
ATOM     21  C   UNL     1     -42.928  -0.520 -32.417  0.00  0.00    +0.000 A 
ATOM     22  C   UNL     1     -41.573  -0.737 -32.538  0.00  0.00    +0.000 A 
ATOM     23  C   UNL     1     -40.508   0.146 -32.389  0.00  0.00    +0.000 A 
ATOM     24  C   UNL     1     -39.210  -0.364 -32.569  0.00  0.00    +0.000 A 
ATOM     25  C   UNL     1     -39.012  -1.724 -32.882  0.00  0.00    +0.000 A 
ATOM     26  C   UNL     1     -40.109  -2.593 -33.024  0.00  0.00    +0.000 A 
ATOM     27  C   UNL     1     -41.380  -2.056 -32.844  0.00  0.00    +0.000 A 
ATOM     28  O   UNL     1     -42.529  -2.673 -32.928  0.00  0.00    +0.000 OA
ENDBRANCH  19  20
ENDBRANCH   2  18
TORSDOF 5
ENDMDL
MODEL 3
REMARK VINA RESULT:      -5.9      3.127      5.921
REMARK  Name = ZINC000009112329 ZINC09112329 PubChem-40938212
REMARK  5 active torsions:
REMARK  status: ('A' for Active; 'I' for Inactive)
REMARK    1  A    between atoms: N_1  and  C_10
REMARK    2  A    between atoms: C_2  and  C_18
REMARK    3  A    between atoms: C_5  and  O_15
REMARK    4  A    between atoms: O_15  and  C_17
REMARK    5  A    between atoms: C_19  and  C_20
REMARK                            x       y       z     vdW  Elec       q    Type
REMARK                         _______ _______ _______ _____ _____    ______ ____
ROOT
ATOM      1  N   UNL     1     -46.823  -8.388 -34.057  0.00  0.00    +0.000 N 
ATOM      2  C   UNL     1     -46.255  -7.490 -35.019  0.00  0.00    +0.000 C 
ATOM      3  O   UNL     1     -46.492  -7.680 -36.243  0.00  0.00    +0.000 OA
ATOM      4  H   UNL     1     -47.551  -8.970 -34.377  0.00  0.00    +0.000 HD
ENDROOT
BRANCH   1  10
ATOM      5  C   UNL     1     -45.277  -9.276 -32.319  0.00  0.00    +0.000 A 
ATOM      6  C   UNL     1     -44.884  -9.335 -30.968  0.00  0.00    +0.000 A 
ATOM      7  C   UNL     1     -45.647  -8.675 -30.013  0.00  0.00    +0.000 A 
ATOM      8  C   UNL     1     -46.765  -7.979 -30.353  0.00  0.00    +0.000 A 
ATOM      9  C   UNL     1     -47.187  -7.880 -31.673  0.00  0.00    +0.000 A 
ATOM     10  C   UNL     1     -46.446  -8.534 -32.679  0.00  0.00    +0.000 A 
ATOM     11  O   UNL     1     -47.356  -7.408 -29.250  0.00  0.00    +0.000 OA
ATOM     12  C   UNL     1     -46.616  -7.733 -28.072  0.00  0.00    +0.000 C 
ATOM     13  C   UNL     1     -45.430  -8.601 -28.544  0.00  0.00    +0.000 C 
ATOM     14  C   UNL     1     -46.100  -6.461 -27.431  0.00  0.00    +0.000 C 
BRANCH   5  15
ATOM     15  O   UNL     1     -44.487  -9.986 -33.237  0.00  0.00    +0.000 OA
BRANCH  15  17
ATOM     16  C   UNL     1     -45.696 -11.842 -34.156  0.00  0.00    +0.000 C 
ATOM     17  C   UNL     1     -44.477 -11.401 -33.370  0.00  0.00    +0.000 C 
ENDBRANCH  15  17
ENDBRANCH   5  15
ENDBRANCH   1  10
BRANCH   2  18
ATOM     18  C   UNL     1     -45.450  -6.332 -34.600  0.00  0.00    +0.000 C 
ATOM     19  C   UNL     1     -45.991  -5.256 -34.039  0.00  0.00    +0.000 C 
BRANCH  19  20
ATOM     20  C   UNL     1     -45.171  -4.114 -33.618  0.00  0.00    +0.000 A 
ATOM     21  C   UNL     1     -45.649  -2.831 -33.332  0.00  0.00    +0.000 A 
ATOM     22  C   UNL     1     -44.501  -2.143 -33.003  0.00  0.00    +0.000 A 
ATOM     23  C   UNL     1     -44.331  -0.816 -32.621  0.00  0.00    +0.000 A 
ATOM     24  C   UNL     1     -43.024  -0.383 -32.337  0.00  0.00    +0.000 A 
ATOM     25  C   UNL     1     -41.936  -1.275 -32.435  0.00  0.00    +0.000 A 
ATOM     26  C   UNL     1     -42.141  -2.613 -32.822  0.00  0.00    +0.000 A 
ATOM     27  C   UNL     1     -43.446  -3.008 -33.100  0.00  0.00    +0.000 A 
ATOM     28  O   UNL     1     -43.861  -4.189 -33.473  0.00  0.00    +0.000 OA
ENDBRANCH  19  20
ENDBRANCH   2  18
TORSDOF 5
ENDMDL
