MODEL 1
REMARK VINA RESULT:      -6.8      0.000      0.000
REMARK  Name = ZINC000014182987 MolPort-009-650-068
REMARK  2 active torsions:
REMARK  status: ('A' for Active; 'I' for Inactive)
REMARK    1  A    between atoms: C_2  and  C_5
REMARK    2  A    between atoms: C_20  and  C_22
REMARK                            x       y       z     vdW  Elec       q    Type
REMARK                         _______ _______ _______ _____ _____    ______ ____
ROOT
ATOM      1  O   UNL     1     -47.321  -2.728 -34.031  0.00  0.00    +0.000 OA
ATOM      2  C   UNL     1     -46.781  -3.495 -33.190  0.00  0.00    +0.000 C 
ATOM      3  N   UNL     1     -47.621  -4.186 -32.256  0.00  0.00    +0.000 N 
ATOM      4  H   UNL     1     -48.553  -4.353 -32.523  0.00  0.00    +0.000 HD
ATOM      5  C   UNL     1     -47.212  -4.650 -30.966  0.00  0.00    +0.000 A 
ATOM      6  N   UNL     1     -46.744  -3.850 -29.983  0.00  0.00    +0.000 NA
ATOM      7  N   UNL     1     -46.481  -4.508 -28.857  0.00  0.00    +0.000 NA
ATOM      8  C   UNL     1     -46.749  -5.831 -28.931  0.00  0.00    +0.000 A 
ATOM      9  S   UNL     1     -47.350  -6.245 -30.456  0.00  0.00    +0.000 S 
ENDROOT
BRANCH   2  10
ATOM     10  C   UNL     1     -45.315  -3.716 -33.239  0.00  0.00    +0.000 A 
ATOM     11  C   UNL     1     -44.839  -4.979 -33.614  0.00  0.00    +0.000 A 
ATOM     12  C   UNL     1     -43.467  -5.216 -33.696  0.00  0.00    +0.000 A 
ATOM     13  O   UNL     1     -43.047  -6.355 -34.029  0.00  0.00    +0.000 OA
ATOM     14  N   UNL     1     -42.584  -4.222 -33.421  0.00  0.00    +0.000 N 
ATOM     15  C   UNL     1     -42.998  -2.980 -33.060  0.00  0.00    +0.000 A 
ATOM     16  C   UNL     1     -42.053  -1.989 -32.780  0.00  0.00    +0.000 A 
ATOM     17  C   UNL     1     -42.469  -0.710 -32.398  0.00  0.00    +0.000 A 
ATOM     18  C   UNL     1     -43.831  -0.420 -32.291  0.00  0.00    +0.000 A 
ATOM     19  C   UNL     1     -44.782  -1.405 -32.568  0.00  0.00    +0.000 A 
ATOM     20  C   UNL     1     -44.382  -2.691 -32.961  0.00  0.00    +0.000 A 
ATOM     21  H   UNL     1     -41.618  -4.406 -33.485  0.00  0.00    +0.000 HD
ENDBRANCH   2  10
BRANCH   8  22
ATOM     22  C   UNL     1     -46.534  -6.765 -27.780  0.00  0.00    +0.000 C 
ATOM     23  C   UNL     1     -45.357  -6.355 -26.886  0.00  0.00    +0.000 C 
ATOM     24  C   UNL     1     -44.012  -6.745 -27.500  0.00  0.00    +0.000 C 
ATOM     25  C   UNL     1     -43.983  -8.237 -27.805  0.00  0.00    +0.000 C 
ATOM     26  C   UNL     1     -45.089  -8.587 -28.794  0.00  0.00    +0.000 C 
ATOM     27  C   UNL     1     -46.456  -8.236 -28.208  0.00  0.00    +0.000 C 
ENDBRANCH   8  22
TORSDOF 2
ENDMDL
MODEL 2
REMARK VINA RESULT:      -6.5      3.008      5.006
REMARK  Name = ZINC000014182987 MolPort-009-650-068
REMARK  2 active torsions:
REMARK  status: ('A' for Active; 'I' for Inactive)
REMARK    1  A    between atoms: C_2  and  C_5
REMARK    2  A    between atoms: C_20  and  C_22
REMARK                            x       y       z     vdW  Elec       q    Type
REMARK                         _______ _______ _______ _____ _____    ______ ____
ROOT
ATOM      1  O   UNL     1     -46.740  -3.283 -30.265  0.00  0.00    +0.000 OA
ATOM      2  C   UNL     1     -46.190  -3.895 -31.218  0.00  0.00    +0.000 C 
ATOM      3  N   UNL     1     -47.024  -4.525 -32.199  0.00  0.00    +0.000 N 
ATOM      4  H   UNL     1     -47.928  -4.157 -32.328  0.00  0.00    +0.000 HD
ATOM      5  C   UNL     1     -46.648  -5.645 -33.005  0.00  0.00    +0.000 A 
ATOM      6  N   UNL     1     -46.286  -6.849 -32.511  0.00  0.00    +0.000 NA
ATOM      7  N   UNL     1     -46.033  -7.747 -33.461  0.00  0.00    +0.000 NA
ATOM      8  C   UNL     1     -46.203  -7.268 -34.713  0.00  0.00    +0.000 A 
ATOM      9  S   UNL     1     -46.698  -5.651 -34.685  0.00  0.00    +0.000 S 
ENDROOT
BRANCH   2  10
ATOM     10  C   UNL     1     -44.712  -3.883 -31.337  0.00  0.00    +0.000 A 
ATOM     11  C   UNL     1     -43.990  -4.978 -30.843  0.00  0.00    +0.000 A 
ATOM     12  C   UNL     1     -42.601  -5.014 -30.961  0.00  0.00    +0.000 A 
ATOM     13  O   UNL     1     -41.959  -5.998 -30.511  0.00  0.00    +0.000 OA
ATOM     14  N   UNL     1     -41.939  -3.991 -31.562  0.00  0.00    +0.000 N 
ATOM     15  C   UNL     1     -42.596  -2.913 -32.061  0.00  0.00    +0.000 A 
ATOM     16  C   UNL     1     -41.873  -1.881 -32.667  0.00  0.00    +0.000 A 
ATOM     17  C   UNL     1     -42.539  -0.762 -33.174  0.00  0.00    +0.000 A 
ATOM     18  C   UNL     1     -43.929  -0.669 -33.076  0.00  0.00    +0.000 A 
ATOM     19  C   UNL     1     -44.659  -1.696 -32.472  0.00  0.00    +0.000 A 
ATOM     20  C   UNL     1     -44.008  -2.830 -31.964  0.00  0.00    +0.000 A 
ATOM     21  H   UNL     1     -40.958  -4.033 -31.637  0.00  0.00    +0.000 HD
ENDBRANCH   2  10
BRANCH   8  22
ATOM     22  C   UNL     1     -45.980  -8.104 -35.936  0.00  0.00    +0.000 C 
ATOM     23  C   UNL     1     -45.183  -9.383 -35.650  0.00  0.00    +0.000 C 
ATOM     24  C   UNL     1     -43.685  -9.105 -35.524  0.00  0.00    +0.000 C 
ATOM     25  C   UNL     1     -43.171  -8.399 -36.772  0.00  0.00    +0.000 C 
ATOM     26  C   UNL     1     -43.898  -7.072 -36.954  0.00  0.00    +0.000 C 
ATOM     27  C   UNL     1     -45.400  -7.307 -37.111  0.00  0.00    +0.000 C 
ENDBRANCH   8  22
TORSDOF 2
ENDMDL
MODEL 3
REMARK VINA RESULT:      -6.2     13.874     16.196
REMARK  Name = ZINC000014182987 MolPort-009-650-068
REMARK  2 active torsions:
REMARK  status: ('A' for Active; 'I' for Inactive)
REMARK    1  A    between atoms: C_2  and  C_5
REMARK    2  A    between atoms: C_20  and  C_22
REMARK                            x       y       z     vdW  Elec       q    Type
REMARK                         _______ _______ _______ _____ _____    ______ ____
ROOT
ATOM      1  O   UNL     1     -42.741 -20.431 -21.757  0.00  0.00    +0.000 OA
ATOM      2  C   UNL     1     -43.379 -19.361 -21.571  0.00  0.00    +0.000 C 
ATOM      3  N   UNL     1     -43.501 -18.861 -20.233  0.00  0.00    +0.000 N 
ATOM      4  H   UNL     1     -42.803 -19.117 -19.588  0.00  0.00    +0.000 HD
ATOM      5  C   UNL     1     -44.558 -18.020 -19.760  0.00  0.00    +0.000 A 
ATOM      6  N   UNL     1     -45.865 -18.363 -19.773  0.00  0.00    +0.000 NA
ATOM      7  N   UNL     1     -46.651 -17.436 -19.229  0.00  0.00    +0.000 NA
ATOM      8  C   UNL     1     -45.976 -16.359 -18.771  0.00  0.00    +0.000 A 
ATOM      9  S   UNL     1     -44.313 -16.527 -19.029  0.00  0.00    +0.000 S 
ENDROOT
BRANCH   2  10
ATOM     10  C   UNL     1     -43.915 -18.619 -22.737  0.00  0.00    +0.000 A 
ATOM     11  C   UNL     1     -45.043 -19.127 -23.396  0.00  0.00    +0.000 A 
ATOM     12  C   UNL     1     -45.591 -18.443 -24.480  0.00  0.00    +0.000 A 
ATOM     13  O   UNL     1     -46.601 -18.908 -25.069  0.00  0.00    +0.000 OA
ATOM     14  N   UNL     1     -45.040 -17.274 -24.900  0.00  0.00    +0.000 N 
ATOM     15  C   UNL     1     -43.951 -16.740 -24.289  0.00  0.00    +0.000 A 
ATOM     16  C   UNL     1     -43.415 -15.537 -24.759  0.00  0.00    +0.000 A 
ATOM     17  C   UNL     1     -42.288 -14.984 -24.145  0.00  0.00    +0.000 A 
ATOM     18  C   UNL     1     -41.693 -15.631 -23.060  0.00  0.00    +0.000 A 
ATOM     19  C   UNL     1     -42.223 -16.834 -22.584  0.00  0.00    +0.000 A 
ATOM     20  C   UNL     1     -43.358 -17.399 -23.184  0.00  0.00    +0.000 A 
ATOM     21  H   UNL     1     -45.440 -16.803 -25.667  0.00  0.00    +0.000 HD
ENDBRANCH   2  10
BRANCH   8  22
ATOM     22  C   UNL     1     -46.657 -15.196 -18.117  0.00  0.00    +0.000 C 
ATOM     23  C   UNL     1     -47.720 -14.544 -19.009  0.00  0.00    +0.000 C 
ATOM     24  C   UNL     1     -47.096 -13.630 -20.064  0.00  0.00    +0.000 C 
ATOM     25  C   UNL     1     -46.212 -12.583 -19.400  0.00  0.00    +0.000 C 
ATOM     26  C   UNL     1     -45.092 -13.266 -18.625  0.00  0.00    +0.000 C 
ATOM     27  C   UNL     1     -45.673 -14.171 -17.539  0.00  0.00    +0.000 C 
ENDBRANCH   8  22
TORSDOF 2
ENDMDL
