MODEL 1
REMARK VINA RESULT:      -7.9      0.000      0.000
REMARK  Name = ZINC000096117524
REMARK  4 active torsions:
REMARK  status: ('A' for Active; 'I' for Inactive)
REMARK    1  A    between atoms: C_4  and  C_30
REMARK    2  A    between atoms: C_8  and  O_9
REMARK    3  A    between atoms: C_10  and  O_11
REMARK    4  A    between atoms: C_14  and  C_21
REMARK                            x       y       z     vdW  Elec       q    Type
REMARK                         _______ _______ _______ _____ _____    ______ ____
ROOT
ATOM      1  O   UNL     1     -47.012  -3.849 -31.456  0.00  0.00    +0.000 OA
ATOM      2  C   UNL     1     -47.011  -4.565 -30.419  0.00  0.00    +0.000 A 
ATOM      3  C   UNL     1     -47.075  -3.940 -29.180  0.00  0.00    +0.000 A 
ATOM      4  C   UNL     1     -47.083  -4.714 -28.018  0.00  0.00    +0.000 A 
ATOM      5  O   UNL     1     -47.015  -6.041 -28.109  0.00  0.00    +0.000 OA
ATOM      6  C   UNL     1     -46.937  -6.698 -29.267  0.00  0.00    +0.000 A 
ATOM      7  C   UNL     1     -46.954  -5.972 -30.488  0.00  0.00    +0.000 A 
ATOM      8  C   UNL     1     -46.932  -6.671 -31.712  0.00  0.00    +0.000 A 
ATOM      9  C   UNL     1     -46.925  -8.066 -31.720  0.00  0.00    +0.000 A 
ATOM     10  C   UNL     1     -46.901  -8.785 -30.524  0.00  0.00    +0.000 A 
ATOM     11  C   UNL     1     -46.844  -8.112 -29.281  0.00  0.00    +0.000 A 
ATOM     12  C   UNL     1     -46.828  -8.947 -27.994  0.00  0.00    +0.000 C 
ATOM     13  C   UNL     1     -46.267 -10.358 -28.203  0.00  0.00    +0.000 C 
ATOM     14  C   UNL     1     -46.805 -10.968 -29.446  0.00  0.00    +0.000 C 
ATOM     15  O   UNL     1     -47.090 -12.193 -29.481  0.00  0.00    +0.000 OA
ATOM     16  O   UNL     1     -46.964 -10.181 -30.583  0.00  0.00    +0.000 OA
ENDROOT
BRANCH  12  17
ATOM     17  C   UNL     1     -46.082  -8.330 -26.844  0.00  0.00    +0.000 A 
ATOM     18  C   UNL     1     -46.706  -8.291 -25.592  0.00  0.00    +0.000 A 
ATOM     19  C   UNL     1     -46.034  -7.772 -24.483  0.00  0.00    +0.000 A 
ATOM     20  C   UNL     1     -44.733  -7.284 -24.618  0.00  0.00    +0.000 A 
ATOM     21  F   UNL     1     -44.091  -6.774 -23.539  0.00  0.00    +0.000 F 
ATOM     22  C   UNL     1     -44.095  -7.324 -25.864  0.00  0.00    +0.000 A 
ATOM     23  F   UNL     1     -42.829  -6.856 -25.992  0.00  0.00    +0.000 F 
ATOM     24  C   UNL     1     -44.761  -7.855 -26.976  0.00  0.00    +0.000 A 
ATOM     25  F   UNL     1     -44.123  -7.909 -28.172  0.00  0.00    +0.000 F 
ENDBRANCH  12  17
BRANCH   4  26
ATOM     26  C   UNL     1     -47.168  -4.071 -26.692  0.00  0.00    +0.000 A 
ATOM     27  C   UNL     1     -47.269  -2.677 -26.596  0.00  0.00    +0.000 A 
ATOM     28  C   UNL     1     -47.351  -2.054 -25.346  0.00  0.00    +0.000 A 
ATOM     29  C   UNL     1     -47.330  -2.822 -24.180  0.00  0.00    +0.000 A 
ATOM     30  C   UNL     1     -47.226  -4.213 -24.263  0.00  0.00    +0.000 A 
ATOM     31  C   UNL     1     -47.145  -4.835 -25.512  0.00  0.00    +0.000 A 
ENDBRANCH   4  26
BRANCH   8  32
ATOM     32  O   UNL     1     -46.938  -5.995 -32.930  0.00  0.00    +0.000 OA
ATOM     33  H   UNL     1     -47.263  -6.420 -33.700  0.00  0.00    +0.000 HD
ENDBRANCH   8  32
BRANCH   9  34
ATOM     34  O   UNL     1     -46.948  -8.748 -32.933  0.00  0.00    +0.000 OA
ATOM     35  H   UNL     1     -47.561  -8.502 -33.597  0.00  0.00    +0.000 HD
ENDBRANCH   9  34
TORSDOF 4
ENDMDL
MODEL 2
REMARK VINA RESULT:      -7.7      8.825     11.335
REMARK  Name = ZINC000096117524
REMARK  4 active torsions:
REMARK  status: ('A' for Active; 'I' for Inactive)
REMARK    1  A    between atoms: C_4  and  C_30
REMARK    2  A    between atoms: C_8  and  O_9
REMARK    3  A    between atoms: C_10  and  O_11
REMARK    4  A    between atoms: C_14  and  C_21
REMARK                            x       y       z     vdW  Elec       q    Type
REMARK                         _______ _______ _______ _____ _____    ______ ____
ROOT
ATOM      1  O   UNL     1     -45.684 -11.997 -24.067  0.00  0.00    +0.000 OA
ATOM      2  C   UNL     1     -45.662 -13.135 -23.526  0.00  0.00    +0.000 A 
ATOM      3  C   UNL     1     -45.904 -13.227 -22.162  0.00  0.00    +0.000 A 
ATOM      4  C   UNL     1     -45.892 -14.479 -21.544  0.00  0.00    +0.000 A 
ATOM      5  O   UNL     1     -45.634 -15.569 -22.265  0.00  0.00    +0.000 OA
ATOM      6  C   UNL     1     -45.381 -15.543 -23.574  0.00  0.00    +0.000 A 
ATOM      7  C   UNL     1     -45.407 -14.305 -24.270  0.00  0.00    +0.000 A 
ATOM      8  C   UNL     1     -45.197 -14.287 -25.664  0.00  0.00    +0.000 A 
ATOM      9  C   UNL     1     -44.997 -15.482 -26.356  0.00  0.00    +0.000 A 
ATOM     10  C   UNL     1     -44.963 -16.701 -25.677  0.00  0.00    +0.000 A 
ATOM     11  C   UNL     1     -45.092 -16.744 -24.268  0.00  0.00    +0.000 A 
ATOM     12  C   UNL     1     -45.058 -18.110 -23.570  0.00  0.00    +0.000 C 
ATOM     13  C   UNL     1     -44.294 -19.172 -24.367  0.00  0.00    +0.000 C 
ATOM     14  C   UNL     1     -44.648 -19.114 -25.809  0.00  0.00    +0.000 C 
ATOM     15  O   UNL     1     -44.758 -20.173 -26.479  0.00  0.00    +0.000 OA
ATOM     16  O   UNL     1     -44.828 -17.877 -26.422  0.00  0.00    +0.000 OA
ENDROOT
BRANCH  12  17
ATOM     17  C   UNL     1     -44.492 -18.097 -22.176  0.00  0.00    +0.000 A 
ATOM     18  C   UNL     1     -43.144 -17.760 -22.011  0.00  0.00    +0.000 A 
ATOM     19  C   UNL     1     -42.585 -17.687 -20.733  0.00  0.00    +0.000 A 
ATOM     20  C   UNL     1     -43.370 -17.954 -19.610  0.00  0.00    +0.000 A 
ATOM     21  F   UNL     1     -42.819 -17.888 -18.373  0.00  0.00    +0.000 F 
ATOM     22  C   UNL     1     -44.722 -18.284 -19.762  0.00  0.00    +0.000 A 
ATOM     23  F   UNL     1     -45.485 -18.535 -18.670  0.00  0.00    +0.000 F 
ATOM     24  C   UNL     1     -45.289 -18.346 -21.041  0.00  0.00    +0.000 A 
ATOM     25  F   UNL     1     -46.606 -18.645 -21.174  0.00  0.00    +0.000 F 
ENDBRANCH  12  17
BRANCH   4  26
ATOM     26  C   UNL     1     -46.164 -14.601 -20.098  0.00  0.00    +0.000 A 
ATOM     27  C   UNL     1     -47.484 -14.697 -19.639  0.00  0.00    +0.000 A 
ATOM     28  C   UNL     1     -47.756 -14.814 -18.273  0.00  0.00    +0.000 A 
ATOM     29  C   UNL     1     -46.707 -14.835 -17.351  0.00  0.00    +0.000 A 
ATOM     30  C   UNL     1     -45.386 -14.737 -17.795  0.00  0.00    +0.000 A 
ATOM     31  C   UNL     1     -45.115 -14.620 -19.162  0.00  0.00    +0.000 A 
ENDBRANCH   4  26
BRANCH   8  32
ATOM     32  O   UNL     1     -45.204 -13.094 -26.381  0.00  0.00    +0.000 OA
ATOM     33  H   UNL     1     -45.781 -12.990 -27.113  0.00  0.00    +0.000 HD
ENDBRANCH   8  32
BRANCH   9  34
ATOM     34  O   UNL     1     -44.834 -15.459 -27.738  0.00  0.00    +0.000 OA
ATOM     35  H   UNL     1     -44.037 -15.768 -28.121  0.00  0.00    +0.000 HD
ENDBRANCH   9  34
TORSDOF 4
ENDMDL
MODEL 3
REMARK VINA RESULT:      -7.6     10.596     13.898
REMARK  Name = ZINC000096117524
REMARK  4 active torsions:
REMARK  status: ('A' for Active; 'I' for Inactive)
REMARK    1  A    between atoms: C_4  and  C_30
REMARK    2  A    between atoms: C_8  and  O_9
REMARK    3  A    between atoms: C_10  and  O_11
REMARK    4  A    between atoms: C_14  and  C_21
REMARK                            x       y       z     vdW  Elec       q    Type
REMARK                         _______ _______ _______ _____ _____    ______ ____
ROOT
ATOM      1  O   UNL     1     -43.994 -18.243 -26.277  0.00  0.00    +0.000 OA
ATOM      2  C   UNL     1     -43.982 -18.153 -25.020  0.00  0.00    +0.000 A 
ATOM      3  C   UNL     1     -43.279 -19.104 -24.293  0.00  0.00    +0.000 A 
ATOM      4  C   UNL     1     -43.246 -19.019 -22.899  0.00  0.00    +0.000 A 
ATOM      5  O   UNL     1     -43.900 -18.036 -22.283  0.00  0.00    +0.000 OA
ATOM      6  C   UNL     1     -44.603 -17.103 -22.925  0.00  0.00    +0.000 A 
ATOM      7  C   UNL     1     -44.653 -17.114 -24.345  0.00  0.00    +0.000 A 
ATOM      8  C   UNL     1     -45.348 -16.092 -25.024  0.00  0.00    +0.000 A 
ATOM      9  C   UNL     1     -45.953 -15.061 -24.304  0.00  0.00    +0.000 A 
ATOM     10  C   UNL     1     -45.913 -15.048 -22.909  0.00  0.00    +0.000 A 
ATOM     11  C   UNL     1     -45.292 -16.101 -22.196  0.00  0.00    +0.000 A 
ATOM     12  C   UNL     1     -45.267 -16.035 -20.664  0.00  0.00    +0.000 C 
ATOM     13  C   UNL     1     -46.411 -15.199 -20.081  0.00  0.00    +0.000 C 
ATOM     14  C   UNL     1     -46.598 -13.940 -20.849  0.00  0.00    +0.000 C 
ATOM     15  O   UNL     1     -46.890 -12.871 -20.254  0.00  0.00    +0.000 OA
ATOM     16  O   UNL     1     -46.475 -13.958 -22.236  0.00  0.00    +0.000 OA
ENDROOT
BRANCH  12  17
ATOM     17  C   UNL     1     -45.284 -17.369 -19.970  0.00  0.00    +0.000 A 
ATOM     18  C   UNL     1     -46.319 -18.261 -20.272  0.00  0.00    +0.000 A 
ATOM     19  C   UNL     1     -46.349 -19.531 -19.690  0.00  0.00    +0.000 A 
ATOM     20  C   UNL     1     -45.347 -19.917 -18.799  0.00  0.00    +0.000 A 
ATOM     21  F   UNL     1     -45.389 -21.148 -18.232  0.00  0.00    +0.000 F 
ATOM     22  C   UNL     1     -44.302 -19.036 -18.495  0.00  0.00    +0.000 A 
ATOM     23  F   UNL     1     -43.325 -19.415 -17.635  0.00  0.00    +0.000 F 
ATOM     24  C   UNL     1     -44.261 -17.767 -19.086  0.00  0.00    +0.000 A 
ATOM     25  F   UNL     1     -43.231 -16.931 -18.800  0.00  0.00    +0.000 F 
ENDBRANCH  12  17
BRANCH   4  26
ATOM     26  C   UNL     1     -42.492 -20.010 -22.107  0.00  0.00    +0.000 A 
ATOM     27  C   UNL     1     -42.162 -21.251 -22.670  0.00  0.00    +0.000 A 
ATOM     28  C   UNL     1     -41.447 -22.199 -21.932  0.00  0.00    +0.000 A 
ATOM     29  C   UNL     1     -41.056 -21.914 -20.621  0.00  0.00    +0.000 A 
ATOM     30  C   UNL     1     -41.381 -20.682 -20.048  0.00  0.00    +0.000 A 
ATOM     31  C   UNL     1     -42.096 -19.735 -20.787  0.00  0.00    +0.000 A 
ENDBRANCH   4  26
BRANCH   8  32
ATOM     32  O   UNL     1     -45.429 -16.073 -26.414  0.00  0.00    +0.000 OA
ATOM     33  H   UNL     1     -46.266 -16.088 -26.835  0.00  0.00    +0.000 HD
ENDBRANCH   8  32
BRANCH   9  34
ATOM     34  O   UNL     1     -46.598 -14.033 -24.984  0.00  0.00    +0.000 OA
ATOM     35  H   UNL     1     -46.348 -13.823 -25.862  0.00  0.00    +0.000 HD
ENDBRANCH   9  34
TORSDOF 4
ENDMDL
