MODEL 1
REMARK VINA RESULT:      -6.8      0.000      0.000
REMARK  Name = ZINC000004878453 PubChem-92237773
REMARK  9 active torsions:
REMARK  status: ('A' for Active; 'I' for Inactive)
REMARK    1  A    between atoms: N_17  and  C_20
REMARK    2  A    between atoms: C_20  and  C_21
REMARK    3  A    between atoms: C_21  and  O_22
REMARK    4  A    between atoms: C_21  and  C_24
REMARK    5  A    between atoms: C_24  and  O_25
REMARK    6  A    between atoms: C_24  and  C_27
REMARK    7  A    between atoms: C_27  and  O_28
REMARK    8  A    between atoms: C_27  and  C_30
REMARK    9  A    between atoms: C_30  and  O_31
REMARK                            x       y       z     vdW  Elec       q    Type
REMARK                         _______ _______ _______ _____ _____    ______ ____
ROOT
ATOM      1  C   UNL     1     -47.268  -3.067 -23.301  0.00  0.00    +0.000 C 
ATOM      2  C   UNL     1     -47.156  -3.713 -24.640  0.00  0.00    +0.000 A 
ATOM      3  C   UNL     1     -47.323  -2.980 -25.827  0.00  0.00    +0.000 A 
ATOM      4  C   UNL     1     -47.212  -3.623 -27.062  0.00  0.00    +0.000 A 
ATOM      5  C   UNL     1     -46.935  -5.000 -27.144  0.00  0.00    +0.000 A 
ATOM      6  C   UNL     1     -46.763  -5.726 -25.937  0.00  0.00    +0.000 A 
ATOM      7  C   UNL     1     -46.877  -5.080 -24.703  0.00  0.00    +0.000 A 
ATOM      8  C   UNL     1     -46.474  -7.087 -25.964  0.00  0.00    +0.000 A 
ATOM      9  C   UNL     1     -46.349  -7.738 -27.185  0.00  0.00    +0.000 A 
ATOM     10  C   UNL     1     -46.057  -9.098 -27.301  0.00  0.00    +0.000 A 
ATOM     11  O   UNL     1     -45.894  -9.814 -26.278  0.00  0.00    +0.000 OA
ATOM     12  N   UNL     1     -45.945  -9.656 -28.536  0.00  0.00    +0.000 N 
ATOM     13  C   UNL     1     -46.111  -8.932 -29.677  0.00  0.00    +0.000 A 
ATOM     14  O   UNL     1     -45.997  -9.496 -30.795  0.00  0.00    +0.000 OA
ATOM     15  N   UNL     1     -46.399  -7.604 -29.619  0.00  0.00    +0.000 NA
ATOM     16  C   UNL     1     -46.529  -6.963 -28.427  0.00  0.00    +0.000 A 
ATOM     17  N   UNL     1     -46.831  -5.630 -28.364  0.00  0.00    +0.000 N 
ATOM     18  C   UNL     1     -47.619  -1.519 -25.806  0.00  0.00    +0.000 C 
ATOM     19  H   UNL     1     -45.739 -10.616 -28.607  0.00  0.00    +0.000 HD
ENDROOT
BRANCH  17  20
ATOM     20  C   UNL     1     -47.012  -4.884 -29.615  0.00  0.00    +0.000 C 
BRANCH  20  21
ATOM     21  C   UNL     1     -45.690  -4.326 -30.139  0.00  0.00    +0.000 C 
BRANCH  21  22
ATOM     22  O   UNL     1     -44.857  -5.400 -30.457  0.00  0.00    +0.000 OA
ATOM     23  H   UNL     1     -44.324  -5.178 -31.236  0.00  0.00    +0.000 HD
ENDBRANCH  21  22
BRANCH  21  24
ATOM     24  C   UNL     1     -45.899  -3.439 -31.371  0.00  0.00    +0.000 C 
BRANCH  24  25
ATOM     25  O   UNL     1     -47.187  -2.894 -31.364  0.00  0.00    +0.000 OA
ATOM     26  H   UNL     1     -47.827  -3.580 -31.114  0.00  0.00    +0.000 HD
ENDBRANCH  24  25
BRANCH  24  27
ATOM     27  C   UNL     1     -44.863  -2.316 -31.436  0.00  0.00    +0.000 C 
BRANCH  27  28
ATOM     28  O   UNL     1     -45.291  -1.210 -30.697  0.00  0.00    +0.000 OA
ATOM     29  H   UNL     1     -44.758  -0.435 -30.936  0.00  0.00    +0.000 HD
ENDBRANCH  27  28
BRANCH  27  30
ATOM     30  C   UNL     1     -44.611  -1.913 -32.878  0.00  0.00    +0.000 C 
BRANCH  30  31
ATOM     31  O   UNL     1     -45.687  -2.308 -33.675  0.00  0.00    +0.000 OA
ATOM     32  H   UNL     1     -45.543  -3.217 -33.982  0.00  0.00    +0.000 HD
ENDBRANCH  30  31
ENDBRANCH  27  30
ENDBRANCH  24  27
ENDBRANCH  21  24
ENDBRANCH  20  21
ENDBRANCH  17  20
TORSDOF 9
ENDMDL
MODEL 2
REMARK VINA RESULT:      -6.5      8.594     12.035
REMARK  Name = ZINC000004878453 PubChem-92237773
REMARK  9 active torsions:
REMARK  status: ('A' for Active; 'I' for Inactive)
REMARK    1  A    between atoms: N_17  and  C_20
REMARK    2  A    between atoms: C_20  and  C_21
REMARK    3  A    between atoms: C_21  and  O_22
REMARK    4  A    between atoms: C_21  and  C_24
REMARK    5  A    between atoms: C_24  and  O_25
REMARK    6  A    between atoms: C_24  and  C_27
REMARK    7  A    between atoms: C_27  and  O_28
REMARK    8  A    between atoms: C_27  and  C_30
REMARK    9  A    between atoms: C_30  and  O_31
REMARK                            x       y       z     vdW  Elec       q    Type
REMARK                         _______ _______ _______ _____ _____    ______ ____
ROOT
ATOM      1  C   UNL     1     -46.630 -19.008 -19.433  0.00  0.00    +0.000 C 
ATOM      2  C   UNL     1     -46.096 -18.188 -20.557  0.00  0.00    +0.000 A 
ATOM      3  C   UNL     1     -45.876 -16.807 -20.420  0.00  0.00    +0.000 A 
ATOM      4  C   UNL     1     -45.375 -16.073 -21.498  0.00  0.00    +0.000 A 
ATOM      5  C   UNL     1     -45.086 -16.691 -22.728  0.00  0.00    +0.000 A 
ATOM      6  C   UNL     1     -45.308 -18.087 -22.850  0.00  0.00    +0.000 A 
ATOM      7  C   UNL     1     -45.810 -18.818 -21.771  0.00  0.00    +0.000 A 
ATOM      8  C   UNL     1     -45.024 -18.748 -24.042  0.00  0.00    +0.000 A 
ATOM      9  C   UNL     1     -44.515 -18.034 -25.118  0.00  0.00    +0.000 A 
ATOM     10  C   UNL     1     -44.200 -18.619 -26.345  0.00  0.00    +0.000 A 
ATOM     11  O   UNL     1     -44.372 -19.853 -26.537  0.00  0.00    +0.000 OA
ATOM     12  N   UNL     1     -43.700 -17.849 -27.348  0.00  0.00    +0.000 N 
ATOM     13  C   UNL     1     -43.493 -16.511 -27.199  0.00  0.00    +0.000 A 
ATOM     14  O   UNL     1     -43.027 -15.842 -28.157  0.00  0.00    +0.000 OA
ATOM     15  N   UNL     1     -43.785 -15.891 -26.024  0.00  0.00    +0.000 NA
ATOM     16  C   UNL     1     -44.290 -16.584 -24.969  0.00  0.00    +0.000 A 
ATOM     17  N   UNL     1     -44.597 -15.962 -23.790  0.00  0.00    +0.000 N 
ATOM     18  C   UNL     1     -46.164 -16.094 -19.143  0.00  0.00    +0.000 C 
ATOM     19  H   UNL     1     -43.481 -18.272 -28.209  0.00  0.00    +0.000 HD
ENDROOT
BRANCH  17  20
ATOM     20  C   UNL     1     -44.369 -14.517 -23.670  0.00  0.00    +0.000 C 
BRANCH  20  21
ATOM     21  C   UNL     1     -45.491 -13.709 -24.322  0.00  0.00    +0.000 C 
BRANCH  21  22
ATOM     22  O   UNL     1     -46.280 -13.160 -23.311  0.00  0.00    +0.000 OA
ATOM     23  H   UNL     1     -46.268 -13.745 -22.537  0.00  0.00    +0.000 HD
ENDBRANCH  21  22
BRANCH  21  24
ATOM     24  C   UNL     1     -44.937 -12.597 -25.220  0.00  0.00    +0.000 C 
BRANCH  24  25
ATOM     25  O   UNL     1     -43.699 -12.973 -25.750  0.00  0.00    +0.000 OA
ATOM     26  H   UNL     1     -43.296 -12.213 -26.201  0.00  0.00    +0.000 HD
ENDBRANCH  24  25
BRANCH  24  27
ATOM     27  C   UNL     1     -45.905 -12.262 -26.357  0.00  0.00    +0.000 C 
BRANCH  27  28
ATOM     28  O   UNL     1     -47.039 -11.615 -25.861  0.00  0.00    +0.000 OA
ATOM     29  H   UNL     1     -46.802 -10.719 -25.573  0.00  0.00    +0.000 HD
ENDBRANCH  27  28
BRANCH  27  30
ATOM     30  C   UNL     1     -46.307 -13.526 -27.096  0.00  0.00    +0.000 C 
BRANCH  30  31
ATOM     31  O   UNL     1     -45.312 -13.879 -28.008  0.00  0.00    +0.000 OA
ATOM     32  H   UNL     1     -44.568 -14.281 -27.533  0.00  0.00    +0.000 HD
ENDBRANCH  30  31
ENDBRANCH  27  30
ENDBRANCH  24  27
ENDBRANCH  21  24
ENDBRANCH  20  21
ENDBRANCH  17  20
TORSDOF 9
ENDMDL
MODEL 3
REMARK VINA RESULT:      -6.5     12.495     16.125
REMARK  Name = ZINC000004878453 PubChem-92237773
REMARK  9 active torsions:
REMARK  status: ('A' for Active; 'I' for Inactive)
REMARK    1  A    between atoms: N_17  and  C_20
REMARK    2  A    between atoms: C_20  and  C_21
REMARK    3  A    between atoms: C_21  and  O_22
REMARK    4  A    between atoms: C_21  and  C_24
REMARK    5  A    between atoms: C_24  and  O_25
REMARK    6  A    between atoms: C_24  and  C_27
REMARK    7  A    between atoms: C_27  and  O_28
REMARK    8  A    between atoms: C_27  and  C_30
REMARK    9  A    between atoms: C_30  and  O_31
REMARK                            x       y       z     vdW  Elec       q    Type
REMARK                         _______ _______ _______ _____ _____    ______ ____
ROOT
ATOM      1  C   UNL     1     -47.368 -12.955 -20.002  0.00  0.00    +0.000 C 
ATOM      2  C   UNL     1     -46.690 -14.282 -20.056  0.00  0.00    +0.000 A 
ATOM      3  C   UNL     1     -46.488 -15.052 -18.898  0.00  0.00    +0.000 A 
ATOM      4  C   UNL     1     -45.847 -16.289 -18.989  0.00  0.00    +0.000 A 
ATOM      5  C   UNL     1     -45.394 -16.785 -20.225  0.00  0.00    +0.000 A 
ATOM      6  C   UNL     1     -45.611 -15.999 -21.387  0.00  0.00    +0.000 A 
ATOM      7  C   UNL     1     -46.251 -14.761 -21.292  0.00  0.00    +0.000 A 
ATOM      8  C   UNL     1     -45.194 -16.451 -22.636  0.00  0.00    +0.000 A 
ATOM      9  C   UNL     1     -44.565 -17.685 -22.744  0.00  0.00    +0.000 A 
ATOM     10  C   UNL     1     -44.121 -18.214 -23.957  0.00  0.00    +0.000 A 
ATOM     11  O   UNL     1     -44.271 -17.577 -25.034  0.00  0.00    +0.000 OA
ATOM     12  N   UNL     1     -43.520 -19.433 -23.977  0.00  0.00    +0.000 N 
ATOM     13  C   UNL     1     -43.331 -20.166 -22.845  0.00  0.00    +0.000 A 
ATOM     14  O   UNL     1     -42.770 -21.289 -22.917  0.00  0.00    +0.000 OA
ATOM     15  N   UNL     1     -43.744 -19.696 -21.638  0.00  0.00    +0.000 NA
ATOM     16  C   UNL     1     -44.353 -18.486 -21.524  0.00  0.00    +0.000 A 
ATOM     17  N   UNL     1     -44.758 -18.003 -20.310  0.00  0.00    +0.000 N 
ATOM     18  C   UNL     1     -46.944 -14.580 -17.559  0.00  0.00    +0.000 C 
ATOM     19  H   UNL     1     -43.210 -19.797 -24.838  0.00  0.00    +0.000 HD
ENDROOT
BRANCH  17  20
ATOM     20  C   UNL     1     -44.530 -18.818 -19.111  0.00  0.00    +0.000 C 
BRANCH  20  21
ATOM     21  C   UNL     1     -43.053 -18.848 -18.718  0.00  0.00    +0.000 C 
BRANCH  21  22
ATOM     22  O   UNL     1     -42.842 -17.878 -17.736  0.00  0.00    +0.000 OA
ATOM     23  H   UNL     1     -43.621 -17.824 -17.162  0.00  0.00    +0.000 HD
ENDBRANCH  21  22
BRANCH  21  24
ATOM     24  C   UNL     1     -42.636 -20.227 -18.195  0.00  0.00    +0.000 C 
BRANCH  24  25
ATOM     25  O   UNL     1     -43.695 -21.132 -18.313  0.00  0.00    +0.000 OA
ATOM     26  H   UNL     1     -44.050 -21.098 -19.216  0.00  0.00    +0.000 HD
ENDBRANCH  24  25
BRANCH  24  27
ATOM     27  C   UNL     1     -41.412 -20.762 -18.942  0.00  0.00    +0.000 C 
BRANCH  27  28
ATOM     28  O   UNL     1     -41.303 -20.162 -20.199  0.00  0.00    +0.000 OA
ATOM     29  H   UNL     1     -41.849 -19.360 -20.224  0.00  0.00    +0.000 HD
ENDBRANCH  27  28
BRANCH  27  30
ATOM     30  C   UNL     1     -41.505 -22.271 -19.092  0.00  0.00    +0.000 C 
BRANCH  30  31
ATOM     31  O   UNL     1     -41.857 -22.596 -20.402  0.00  0.00    +0.000 OA
ATOM     32  H   UNL     1     -42.574 -23.250 -20.390  0.00  0.00    +0.000 HD
ENDBRANCH  30  31
ENDBRANCH  27  30
ENDBRANCH  24  27
ENDBRANCH  21  24
ENDBRANCH  20  21
ENDBRANCH  17  20
TORSDOF 9
ENDMDL
