MODEL 1
REMARK VINA RESULT:      -6.8      0.000      0.000
REMARK  Name = ZINC000067641329 MCULE-5536280821 MolPort-016-591-893
REMARK  3 active torsions:
REMARK  status: ('A' for Active; 'I' for Inactive)
REMARK    1  A    between atoms: C_1  and  C_6
REMARK    2  A    between atoms: N_2  and  C_19
REMARK    3  A    between atoms: C_4  and  C_26
REMARK                            x       y       z     vdW  Elec       q    Type
REMARK                         _______ _______ _______ _____ _____    ______ ____
ROOT
ATOM      1  C   UNL     1     -46.523  -5.236 -28.785  0.00  0.00    +0.000 A 
ATOM      2  N   UNL     1     -45.773  -5.888 -27.864  0.00  0.00    +0.000 N 
ATOM      3  N   UNL     1     -46.120  -5.437 -26.672  0.00  0.00    +0.000 NA
ATOM      4  C   UNL     1     -47.076  -4.514 -26.890  0.00  0.00    +0.000 A 
ATOM      5  N   UNL     1     -47.362  -4.357 -28.199  0.00  0.00    +0.000 NA
ENDROOT
BRANCH   1   6
ATOM      6  C   UNL     1     -46.548  -5.514 -30.238  0.00  0.00    +0.000 A 
ATOM      7  C   UNL     1     -46.931  -6.786 -30.679  0.00  0.00    +0.000 A 
ATOM      8  C   UNL     1     -47.002  -7.062 -32.044  0.00  0.00    +0.000 A 
ATOM      9  O   UNL     1     -47.339  -8.209 -32.435  0.00  0.00    +0.000 OA
ATOM     10  N   UNL     1     -46.711  -6.095 -32.954  0.00  0.00    +0.000 N 
ATOM     11  C   UNL     1     -46.347  -4.843 -32.569  0.00  0.00    +0.000 A 
ATOM     12  C   UNL     1     -46.056  -3.878 -33.539  0.00  0.00    +0.000 A 
ATOM     13  C   UNL     1     -45.676  -2.591 -33.153  0.00  0.00    +0.000 A 
ATOM     14  C   UNL     1     -45.583  -2.262 -31.798  0.00  0.00    +0.000 A 
ATOM     15  F   UNL     1     -45.212  -1.013 -31.428  0.00  0.00    +0.000 F 
ATOM     16  C   UNL     1     -45.872  -3.221 -30.823  0.00  0.00    +0.000 A 
ATOM     17  C   UNL     1     -46.260  -4.518 -31.195  0.00  0.00    +0.000 A 
ATOM     18  H   UNL     1     -46.765  -6.307 -33.913  0.00  0.00    +0.000 HD
ENDBRANCH   1   6
BRANCH   2  19
ATOM     19  C   UNL     1     -44.707  -6.834 -28.063  0.00  0.00    +0.000 A 
ATOM     20  C   UNL     1     -43.425  -6.413 -28.439  0.00  0.00    +0.000 A 
ATOM     21  C   UNL     1     -42.403  -7.354 -28.585  0.00  0.00    +0.000 A 
ATOM     22  N   UNL     1     -42.652  -8.670 -28.353  0.00  0.00    +0.000 NA
ATOM     23  C   UNL     1     -43.883  -9.105 -27.972  0.00  0.00    +0.000 A 
ATOM     24  C   UNL     1     -44.114 -10.551 -27.719  0.00  0.00    +0.000 C 
ATOM     25  C   UNL     1     -44.929  -8.194 -27.815  0.00  0.00    +0.000 A 
ENDBRANCH   2  19
BRANCH   4  26
ATOM     26  C   UNL     1     -47.756  -3.743 -25.809  0.00  0.00    +0.000 C 
ATOM     27  C   UNL     1     -47.410  -2.270 -25.911  0.00  0.00    +0.000 C 
ATOM     28  C   UNL     1     -47.353  -4.273 -24.447  0.00  0.00    +0.000 C 
ENDBRANCH   4  26
TORSDOF 3
ENDMDL
MODEL 2
REMARK VINA RESULT:      -6.8      3.162      5.392
REMARK  Name = ZINC000067641329 MCULE-5536280821 MolPort-016-591-893
REMARK  3 active torsions:
REMARK  status: ('A' for Active; 'I' for Inactive)
REMARK    1  A    between atoms: C_1  and  C_6
REMARK    2  A    between atoms: N_2  and  C_19
REMARK    3  A    between atoms: C_4  and  C_26
REMARK                            x       y       z     vdW  Elec       q    Type
REMARK                         _______ _______ _______ _____ _____    ______ ____
ROOT
ATOM      1  C   UNL     1     -43.995  -5.252 -30.998  0.00  0.00    +0.000 A 
ATOM      2  N   UNL     1     -45.268  -5.571 -31.335  0.00  0.00    +0.000 N 
ATOM      3  N   UNL     1     -45.845  -6.097 -30.269  0.00  0.00    +0.000 NA
ATOM      4  C   UNL     1     -44.908  -6.091 -29.301  0.00  0.00    +0.000 A 
ATOM      5  N   UNL     1     -43.734  -5.569 -29.713  0.00  0.00    +0.000 NA
ENDROOT
BRANCH   1   6
ATOM      6  C   UNL     1     -43.027  -4.528 -31.851  0.00  0.00    +0.000 A 
ATOM      7  C   UNL     1     -41.982  -5.243 -32.448  0.00  0.00    +0.000 A 
ATOM      8  C   UNL     1     -41.079  -4.592 -33.289  0.00  0.00    +0.000 A 
ATOM      9  O   UNL     1     -40.137  -5.237 -33.817  0.00  0.00    +0.000 OA
ATOM     10  N   UNL     1     -41.216  -3.264 -33.542  0.00  0.00    +0.000 N 
ATOM     11  C   UNL     1     -42.222  -2.534 -32.993  0.00  0.00    +0.000 A 
ATOM     12  C   UNL     1     -42.325  -1.170 -33.280  0.00  0.00    +0.000 A 
ATOM     13  C   UNL     1     -43.354  -0.411 -32.716  0.00  0.00    +0.000 A 
ATOM     14  C   UNL     1     -44.282  -1.011 -31.863  0.00  0.00    +0.000 A 
ATOM     15  F   UNL     1     -45.276  -0.272 -31.316  0.00  0.00    +0.000 F 
ATOM     16  C   UNL     1     -44.186  -2.375 -31.570  0.00  0.00    +0.000 A 
ATOM     17  C   UNL     1     -43.161  -3.152 -32.133  0.00  0.00    +0.000 A 
ATOM     18  H   UNL     1     -40.570  -2.820 -34.137  0.00  0.00    +0.000 HD
ENDBRANCH   1   6
BRANCH   2  19
ATOM     19  C   UNL     1     -45.921  -5.480 -32.614  0.00  0.00    +0.000 A 
ATOM     20  C   UNL     1     -46.827  -4.449 -32.893  0.00  0.00    +0.000 A 
ATOM     21  C   UNL     1     -47.413  -4.367 -34.158  0.00  0.00    +0.000 A 
ATOM     22  N   UNL     1     -47.095  -5.278 -35.116  0.00  0.00    +0.000 NA
ATOM     23  C   UNL     1     -46.206  -6.281 -34.877  0.00  0.00    +0.000 A 
ATOM     24  C   UNL     1     -45.878  -7.252 -35.952  0.00  0.00    +0.000 C 
ATOM     25  C   UNL     1     -45.600  -6.394 -33.625  0.00  0.00    +0.000 A 
ENDBRANCH   2  19
BRANCH   4  26
ATOM     26  C   UNL     1     -45.132  -6.603 -27.917  0.00  0.00    +0.000 C 
ATOM     27  C   UNL     1     -45.542  -8.062 -27.953  0.00  0.00    +0.000 C 
ATOM     28  C   UNL     1     -46.200  -5.786 -27.217  0.00  0.00    +0.000 C 
ENDBRANCH   4  26
TORSDOF 3
ENDMDL
MODEL 3
REMARK VINA RESULT:      -6.7      2.120      4.980
REMARK  Name = ZINC000067641329 MCULE-5536280821 MolPort-016-591-893
REMARK  3 active torsions:
REMARK  status: ('A' for Active; 'I' for Inactive)
REMARK    1  A    between atoms: C_1  and  C_6
REMARK    2  A    between atoms: N_2  and  C_19
REMARK    3  A    between atoms: C_4  and  C_26
REMARK                            x       y       z     vdW  Elec       q    Type
REMARK                         _______ _______ _______ _____ _____    ______ ____
ROOT
ATOM      1  C   UNL     1     -46.639  -5.639 -28.017  0.00  0.00    +0.000 A 
ATOM      2  N   UNL     1     -46.680  -4.539 -28.807  0.00  0.00    +0.000 N 
ATOM      3  N   UNL     1     -47.086  -3.526 -28.062  0.00  0.00    +0.000 NA
ATOM      4  C   UNL     1     -47.287  -4.031 -26.830  0.00  0.00    +0.000 A 
ATOM      5  N   UNL     1     -47.018  -5.351 -26.755  0.00  0.00    +0.000 NA
ENDROOT
BRANCH   1   6
ATOM      6  C   UNL     1     -46.126  -6.970 -28.409  0.00  0.00    +0.000 A 
ATOM      7  C   UNL     1     -46.993  -7.876 -29.029  0.00  0.00    +0.000 A 
ATOM      8  C   UNL     1     -46.524  -9.123 -29.445  0.00  0.00    +0.000 A 
ATOM      9  O   UNL     1     -47.310  -9.937 -29.995  0.00  0.00    +0.000 OA
ATOM     10  N   UNL     1     -45.220  -9.459 -29.259  0.00  0.00    +0.000 N 
ATOM     11  C   UNL     1     -44.341  -8.605 -28.673  0.00  0.00    +0.000 A 
ATOM     12  C   UNL     1     -43.008  -8.993 -28.502  0.00  0.00    +0.000 A 
ATOM     13  C   UNL     1     -42.099  -8.123 -27.895  0.00  0.00    +0.000 A 
ATOM     14  C   UNL     1     -42.517  -6.865 -27.455  0.00  0.00    +0.000 A 
ATOM     15  F   UNL     1     -41.633  -6.026 -26.865  0.00  0.00    +0.000 F 
ATOM     16  C   UNL     1     -43.848  -6.471 -27.621  0.00  0.00    +0.000 A 
ATOM     17  C   UNL     1     -44.772  -7.331 -28.234  0.00  0.00    +0.000 A 
ATOM     18  H   UNL     1     -44.906 -10.343 -29.558  0.00  0.00    +0.000 HD
ENDBRANCH   1   6
BRANCH   2  19
ATOM     19  C   UNL     1     -46.440  -4.425 -30.220  0.00  0.00    +0.000 A 
ATOM     20  C   UNL     1     -47.491  -4.516 -31.143  0.00  0.00    +0.000 A 
ATOM     21  C   UNL     1     -47.229  -4.361 -32.506  0.00  0.00    +0.000 A 
ATOM     22  N   UNL     1     -45.962  -4.111 -32.932  0.00  0.00    +0.000 NA
ATOM     23  C   UNL     1     -44.926  -4.002 -32.057  0.00  0.00    +0.000 A 
ATOM     24  C   UNL     1     -43.557  -3.719 -32.561  0.00  0.00    +0.000 C 
ATOM     25  C   UNL     1     -45.149  -4.150 -30.687  0.00  0.00    +0.000 A 
ENDBRANCH   2  19
BRANCH   4  26
ATOM     26  C   UNL     1     -47.756  -3.227 -25.663  0.00  0.00    +0.000 C 
ATOM     27  C   UNL     1     -47.390  -1.767 -25.845  0.00  0.00    +0.000 C 
ATOM     28  C   UNL     1     -47.149  -3.754 -24.378  0.00  0.00    +0.000 C 
ENDBRANCH   4  26
TORSDOF 3
ENDMDL
