MODEL 1
REMARK VINA RESULT:      -6.7      0.000      0.000
REMARK  Name = ZINC000031809867
REMARK  2 active torsions:
REMARK  status: ('A' for Active; 'I' for Inactive)
REMARK    1  A    between atoms: C_7  and  C_24
REMARK    2  A    between atoms: C_28  and  O_29
REMARK                            x       y       z     vdW  Elec       q    Type
REMARK                         _______ _______ _______ _____ _____    ______ ____
ROOT
ATOM      1  C   UNL     1     -42.593  -6.910 -27.505  0.00  0.00    +0.000 C 
ATOM      2  C   UNL     1     -43.039  -6.215 -28.745  0.00  0.00    +0.000 A 
ATOM      3  N   UNL     1     -42.193  -5.775 -29.693  0.00  0.00    +0.000 NA
ATOM      4  N   UNL     1     -42.918  -5.219 -30.649  0.00  0.00    +0.000 N 
ATOM      5  C   UNL     1     -44.232  -5.324 -30.347  0.00  0.00    +0.000 A 
ATOM      6  C   UNL     1     -44.349  -5.949 -29.106  0.00  0.00    +0.000 A 
ATOM      7  C   UNL     1     -45.552  -6.363 -28.305  0.00  0.00    +0.000 C 
ATOM      8  S   UNL     1     -47.000  -5.276 -28.483  0.00  0.00    +0.000 S 
ATOM      9  C   UNL     1     -47.356  -5.876 -30.151  0.00  0.00    +0.000 C 
ATOM     10  C   UNL     1     -46.690  -5.011 -31.155  0.00  0.00    +0.000 C 
ATOM     11  O   UNL     1     -47.407  -4.405 -31.991  0.00  0.00    +0.000 OA
ATOM     12  N   UNL     1     -45.268  -4.871 -31.236  0.00  0.00    +0.000 N 
ATOM     13  H   UNL     1     -44.947  -4.384 -32.028  0.00  0.00    +0.000 HD
ATOM     14  C   UNL     1     -42.334  -4.666 -31.838  0.00  0.00    +0.000 A 
ATOM     15  N   UNL     1     -41.308  -5.317 -32.463  0.00  0.00    +0.000 NA
ATOM     16  C   UNL     1     -40.708  -4.801 -33.584  0.00  0.00    +0.000 A 
ATOM     17  N   UNL     1     -41.117  -3.604 -34.100  0.00  0.00    +0.000 NA
ATOM     18  C   UNL     1     -42.125  -2.950 -33.473  0.00  0.00    +0.000 A 
ATOM     19  N   UNL     1     -42.617  -1.748 -33.795  0.00  0.00    +0.000 N 
ATOM     20  C   UNL     1     -43.547  -1.542 -32.822  0.00  0.00    +0.000 A 
ATOM     21  N   UNL     1     -43.637  -2.559 -31.922  0.00  0.00    +0.000 NA
ATOM     22  C   UNL     1     -42.731  -3.439 -32.371  0.00  0.00    +0.000 A 
ATOM     23  H   UNL     1     -42.370  -1.161 -34.546  0.00  0.00    +0.000 HD
ENDROOT
BRANCH   7  24
ATOM     24  C   UNL     1     -45.879  -7.830 -28.379  0.00  0.00    +0.000 A 
ATOM     25  C   UNL     1     -45.356  -8.591 -29.430  0.00  0.00    +0.000 A 
ATOM     26  C   UNL     1     -45.636  -9.957 -29.519  0.00  0.00    +0.000 A 
ATOM     27  C   UNL     1     -46.437 -10.571 -28.553  0.00  0.00    +0.000 A 
ATOM     28  C   UNL     1     -46.960  -9.819 -27.498  0.00  0.00    +0.000 A 
ATOM     29  C   UNL     1     -46.681  -8.452 -27.409  0.00  0.00    +0.000 A 
BRANCH  28  30
ATOM     30  O   UNL     1     -47.755 -10.429 -26.537  0.00  0.00    +0.000 OA
ATOM     31  H   UNL     1     -47.636 -11.336 -26.338  0.00  0.00    +0.000 HD
ENDBRANCH  28  30
ENDBRANCH   7  24
TORSDOF 2
ENDMDL
MODEL 2
REMARK VINA RESULT:      -6.7      4.054      7.205
REMARK  Name = ZINC000031809867
REMARK  2 active torsions:
REMARK  status: ('A' for Active; 'I' for Inactive)
REMARK    1  A    between atoms: C_7  and  C_24
REMARK    2  A    between atoms: C_28  and  O_29
REMARK                            x       y       z     vdW  Elec       q    Type
REMARK                         _______ _______ _______ _____ _____    ______ ____
ROOT
ATOM      1  C   UNL     1     -47.604  -4.264 -34.393  0.00  0.00    +0.000 C 
ATOM      2  C   UNL     1     -46.688  -5.377 -34.014  0.00  0.00    +0.000 A 
ATOM      3  N   UNL     1     -46.472  -6.454 -34.789  0.00  0.00    +0.000 NA
ATOM      4  N   UNL     1     -45.607  -7.233 -34.159  0.00  0.00    +0.000 N 
ATOM      5  C   UNL     1     -45.233  -6.653 -32.996  0.00  0.00    +0.000 A 
ATOM      6  C   UNL     1     -45.931  -5.454 -32.858  0.00  0.00    +0.000 A 
ATOM      7  C   UNL     1     -45.884  -4.387 -31.801  0.00  0.00    +0.000 C 
ATOM      8  S   UNL     1     -45.542  -4.991 -30.118  0.00  0.00    +0.000 S 
ATOM      9  C   UNL     1     -43.803  -5.315 -30.493  0.00  0.00    +0.000 C 
ATOM     10  C   UNL     1     -43.633  -6.719 -30.940  0.00  0.00    +0.000 C 
ATOM     11  O   UNL     1     -42.888  -7.475 -30.265  0.00  0.00    +0.000 OA
ATOM     12  N   UNL     1     -44.246  -7.234 -32.126  0.00  0.00    +0.000 N 
ATOM     13  H   UNL     1     -43.943  -8.133 -32.388  0.00  0.00    +0.000 HD
ATOM     14  C   UNL     1     -45.127  -8.464 -34.719  0.00  0.00    +0.000 A 
ATOM     15  N   UNL     1     -44.812  -8.535 -36.047  0.00  0.00    +0.000 NA
ATOM     16  C   UNL     1     -44.379  -9.704 -36.620  0.00  0.00    +0.000 A 
ATOM     17  N   UNL     1     -44.264 -10.841 -35.872  0.00  0.00    +0.000 NA
ATOM     18  C   UNL     1     -44.589 -10.776 -34.558  0.00  0.00    +0.000 A 
ATOM     19  N   UNL     1     -44.596 -11.791 -33.686  0.00  0.00    +0.000 N 
ATOM     20  C   UNL     1     -45.055 -11.200 -32.550  0.00  0.00    +0.000 A 
ATOM     21  N   UNL     1     -45.333  -9.875 -32.692  0.00  0.00    +0.000 NA
ATOM     22  C   UNL     1     -45.016  -9.637 -33.973  0.00  0.00    +0.000 A 
ATOM     23  H   UNL     1     -44.335 -12.730 -33.830  0.00  0.00    +0.000 HD
ENDROOT
BRANCH   7  24
ATOM     24  C   UNL     1     -45.093  -3.164 -32.180  0.00  0.00    +0.000 A 
ATOM     25  C   UNL     1     -44.185  -3.244 -33.241  0.00  0.00    +0.000 A 
ATOM     26  C   UNL     1     -43.445  -2.121 -33.622  0.00  0.00    +0.000 A 
ATOM     27  C   UNL     1     -43.612  -0.910 -32.944  0.00  0.00    +0.000 A 
ATOM     28  C   UNL     1     -44.521  -0.822 -31.886  0.00  0.00    +0.000 A 
ATOM     29  C   UNL     1     -45.260  -1.944 -31.505  0.00  0.00    +0.000 A 
BRANCH  28  30
ATOM     30  O   UNL     1     -44.688   0.381 -31.214  0.00  0.00    +0.000 OA
ATOM     31  H   UNL     1     -45.390   0.955 -31.447  0.00  0.00    +0.000 HD
ENDBRANCH  28  30
ENDBRANCH   7  24
TORSDOF 2
ENDMDL
MODEL 3
REMARK VINA RESULT:      -6.6     10.089     13.843
REMARK  Name = ZINC000031809867
REMARK  2 active torsions:
REMARK  status: ('A' for Active; 'I' for Inactive)
REMARK    1  A    between atoms: C_7  and  C_24
REMARK    2  A    between atoms: C_28  and  O_29
REMARK                            x       y       z     vdW  Elec       q    Type
REMARK                         _______ _______ _______ _____ _____    ______ ____
ROOT
ATOM      1  C   UNL     1     -42.869 -13.036 -24.249  0.00  0.00    +0.000 C 
ATOM      2  C   UNL     1     -43.678 -14.175 -23.734  0.00  0.00    +0.000 A 
ATOM      3  N   UNL     1     -44.237 -14.194 -22.511  0.00  0.00    +0.000 NA
ATOM      4  N   UNL     1     -44.885 -15.340 -22.385  0.00  0.00    +0.000 N 
ATOM      5  C   UNL     1     -44.780 -16.053 -23.529  0.00  0.00    +0.000 A 
ATOM      6  C   UNL     1     -43.985 -15.336 -24.423  0.00  0.00    +0.000 A 
ATOM      7  C   UNL     1     -43.575 -15.617 -25.841  0.00  0.00    +0.000 C 
ATOM      8  S   UNL     1     -43.352 -17.379 -26.239  0.00  0.00    +0.000 S 
ATOM      9  C   UNL     1     -45.132 -17.697 -26.226  0.00  0.00    +0.000 C 
ATOM     10  C   UNL     1     -45.558 -18.143 -24.878  0.00  0.00    +0.000 C 
ATOM     11  O   UNL     1     -46.076 -19.283 -24.762  0.00  0.00    +0.000 OA
ATOM     12  N   UNL     1     -45.442 -17.317 -23.716  0.00  0.00    +0.000 N 
ATOM     13  H   UNL     1     -45.888 -17.670 -22.913  0.00  0.00    +0.000 HD
ATOM     14  C   UNL     1     -45.626 -15.681 -21.205  0.00  0.00    +0.000 A 
ATOM     15  N   UNL     1     -46.392 -14.737 -20.580  0.00  0.00    +0.000 NA
ATOM     16  C   UNL     1     -47.089 -15.022 -19.434  0.00  0.00    +0.000 A 
ATOM     17  N   UNL     1     -47.024 -16.266 -18.874  0.00  0.00    +0.000 NA
ATOM     18  C   UNL     1     -46.255 -17.200 -19.484  0.00  0.00    +0.000 A 
ATOM     19  N   UNL     1     -46.023 -18.447 -19.056  0.00  0.00    +0.000 N 
ATOM     20  C   UNL     1     -45.150 -18.919 -19.987  0.00  0.00    +0.000 A 
ATOM     21  N   UNL     1     -44.836 -18.017 -20.956  0.00  0.00    +0.000 NA
ATOM     22  C   UNL     1     -45.562 -16.943 -20.613  0.00  0.00    +0.000 A 
ATOM     23  H   UNL     1     -46.392 -18.906 -18.267  0.00  0.00    +0.000 HD
ENDROOT
BRANCH   7  24
ATOM     24  C   UNL     1     -44.348 -14.852 -26.881  0.00  0.00    +0.000 A 
ATOM     25  C   UNL     1     -43.862 -14.807 -28.192  0.00  0.00    +0.000 A 
ATOM     26  C   UNL     1     -44.565 -14.113 -29.181  0.00  0.00    +0.000 A 
ATOM     27  C   UNL     1     -45.760 -13.462 -28.864  0.00  0.00    +0.000 A 
ATOM     28  C   UNL     1     -46.253 -13.506 -27.557  0.00  0.00    +0.000 A 
ATOM     29  C   UNL     1     -45.551 -14.199 -26.568  0.00  0.00    +0.000 A 
BRANCH  28  30
ATOM     30  O   UNL     1     -47.441 -12.860 -27.242  0.00  0.00    +0.000 OA
ATOM     31  H   UNL     1     -48.195 -13.359 -26.997  0.00  0.00    +0.000 HD
ENDBRANCH  28  30
ENDBRANCH   7  24
TORSDOF 2
ENDMDL
