MODEL 1
REMARK VINA RESULT:      -6.3      0.000      0.000
REMARK  Name = ZINC000230157758 PubChem-100900615
REMARK  9 active torsions:
REMARK  status: ('A' for Active; 'I' for Inactive)
REMARK    1  A    between atoms: N_13  and  C_20
REMARK    2  A    between atoms: C_20  and  C_21
REMARK    3  A    between atoms: C_21  and  O_22
REMARK    4  A    between atoms: C_21  and  C_24
REMARK    5  A    between atoms: C_24  and  O_25
REMARK    6  A    between atoms: C_24  and  C_27
REMARK    7  A    between atoms: C_27  and  O_28
REMARK    8  A    between atoms: C_27  and  C_30
REMARK    9  A    between atoms: C_30  and  O_31
REMARK                            x       y       z     vdW  Elec       q    Type
REMARK                         _______ _______ _______ _____ _____    ______ ____
ROOT
ATOM      1  C   UNL     1     -46.089 -19.142 -19.233  0.00  0.00    +0.000 C 
ATOM      2  C   UNL     1     -45.819 -18.256 -20.401  0.00  0.00    +0.000 A 
ATOM      3  C   UNL     1     -45.414 -18.839 -21.606  0.00  0.00    +0.000 A 
ATOM      4  C   UNL     1     -45.152 -18.038 -22.720  0.00  0.00    +0.000 A 
ATOM      5  C   UNL     1     -44.748 -18.609 -23.925  0.00  0.00    +0.000 A 
ATOM      6  C   UNL     1     -44.490 -17.788 -25.030  0.00  0.00    +0.000 A 
ATOM      7  C   UNL     1     -44.644 -16.391 -24.909  0.00  0.00    +0.000 A 
ATOM      8  N   UNL     1     -45.039 -15.860 -23.715  0.00  0.00    +0.000 NA
ATOM      9  C   UNL     1     -45.294 -16.639 -22.631  0.00  0.00    +0.000 A 
ATOM     10  C   UNL     1     -45.697 -16.056 -21.427  0.00  0.00    +0.000 A 
ATOM     11  C   UNL     1     -45.961 -16.857 -20.310  0.00  0.00    +0.000 A 
ATOM     12  C   UNL     1     -46.390 -16.198 -19.044  0.00  0.00    +0.000 C 
ATOM     13  N   UNL     1     -44.397 -15.583 -25.984  0.00  0.00    +0.000 N 
ATOM     14  C   UNL     1     -43.994 -16.128 -27.175  0.00  0.00    +0.000 A 
ATOM     15  O   UNL     1     -43.757 -15.391 -28.170  0.00  0.00    +0.000 OA
ATOM     16  N   UNL     1     -43.844 -17.472 -27.298  0.00  0.00    +0.000 N 
ATOM     17  C   UNL     1     -44.082 -18.312 -26.259  0.00  0.00    +0.000 A 
ATOM     18  O   UNL     1     -43.931 -19.553 -26.417  0.00  0.00    +0.000 OA
ATOM     19  H   UNL     1     -43.555 -17.846 -28.161  0.00  0.00    +0.000 HD
ENDROOT
BRANCH  13  20
ATOM     20  C   UNL     1     -44.568 -14.133 -25.867  0.00  0.00    +0.000 C 
BRANCH  20  21
ATOM     21  C   UNL     1     -46.029 -13.748 -26.064  0.00  0.00    +0.000 C 
BRANCH  21  22
ATOM     22  O   UNL     1     -46.649 -13.638 -24.817  0.00  0.00    +0.000 OA
ATOM     23  H   UNL     1     -46.569 -14.478 -24.341  0.00  0.00    +0.000 HD
ENDBRANCH  21  22
BRANCH  21  24
ATOM     24  C   UNL     1     -46.142 -12.422 -26.826  0.00  0.00    +0.000 C 
BRANCH  24  25
ATOM     25  O   UNL     1     -47.050 -11.572 -26.190  0.00  0.00    +0.000 OA
ATOM     26  H   UNL     1     -46.636 -11.190 -25.400  0.00  0.00    +0.000 HD
ENDBRANCH  24  25
BRANCH  24  27
ATOM     27  C   UNL     1     -46.545 -12.591 -28.298  0.00  0.00    +0.000 C 
BRANCH  27  28
ATOM     28  O   UNL     1     -47.465 -11.611 -28.668  0.00  0.00    +0.000 OA
ATOM     29  H   UNL     1     -47.447 -11.497 -29.631  0.00  0.00    +0.000 HD
ENDBRANCH  27  28
BRANCH  27  30
ATOM     30  C   UNL     1     -45.357 -12.570 -29.255  0.00  0.00    +0.000 C 
BRANCH  30  31
ATOM     31  O   UNL     1     -45.242 -13.798 -29.906  0.00  0.00    +0.000 OA
ATOM     32  H   UNL     1     -44.314 -14.081 -29.902  0.00  0.00    +0.000 HD
ENDBRANCH  30  31
ENDBRANCH  27  30
ENDBRANCH  24  27
ENDBRANCH  21  24
ENDBRANCH  20  21
ENDBRANCH  13  20
TORSDOF 9
ENDMDL
MODEL 2
REMARK VINA RESULT:      -6.1      1.690      3.025
REMARK  Name = ZINC000230157758 PubChem-100900615
REMARK  9 active torsions:
REMARK  status: ('A' for Active; 'I' for Inactive)
REMARK    1  A    between atoms: N_13  and  C_20
REMARK    2  A    between atoms: C_20  and  C_21
REMARK    3  A    between atoms: C_21  and  O_22
REMARK    4  A    between atoms: C_21  and  C_24
REMARK    5  A    between atoms: C_24  and  O_25
REMARK    6  A    between atoms: C_24  and  C_27
REMARK    7  A    between atoms: C_27  and  O_28
REMARK    8  A    between atoms: C_27  and  C_30
REMARK    9  A    between atoms: C_30  and  O_31
REMARK                            x       y       z     vdW  Elec       q    Type
REMARK                         _______ _______ _______ _____ _____    ______ ____
ROOT
ATOM      1  C   UNL     1     -46.487 -15.081 -17.866  0.00  0.00    +0.000 C 
ATOM      2  C   UNL     1     -46.273 -15.351 -19.317  0.00  0.00    +0.000 A 
ATOM      3  C   UNL     1     -45.615 -16.527 -19.691  0.00  0.00    +0.000 A 
ATOM      4  C   UNL     1     -45.397 -16.811 -21.041  0.00  0.00    +0.000 A 
ATOM      5  C   UNL     1     -44.743 -17.980 -21.423  0.00  0.00    +0.000 A 
ATOM      6  C   UNL     1     -44.535 -18.245 -22.783  0.00  0.00    +0.000 A 
ATOM      7  C   UNL     1     -44.992 -17.325 -23.750  0.00  0.00    +0.000 A 
ATOM      8  N   UNL     1     -45.627 -16.186 -23.344  0.00  0.00    +0.000 NA
ATOM      9  C   UNL     1     -45.839 -15.910 -22.031  0.00  0.00    +0.000 A 
ATOM     10  C   UNL     1     -46.495 -14.735 -21.657  0.00  0.00    +0.000 A 
ATOM     11  C   UNL     1     -46.715 -14.449 -20.305  0.00  0.00    +0.000 A 
ATOM     12  C   UNL     1     -47.419 -13.184 -19.947  0.00  0.00    +0.000 C 
ATOM     13  N   UNL     1     -44.795 -17.578 -25.079  0.00  0.00    +0.000 N 
ATOM     14  C   UNL     1     -44.149 -18.720 -25.472  0.00  0.00    +0.000 A 
ATOM     15  O   UNL     1     -43.956 -18.960 -26.695  0.00  0.00    +0.000 OA
ATOM     16  N   UNL     1     -43.706 -19.611 -24.547  0.00  0.00    +0.000 N 
ATOM     17  C   UNL     1     -43.883 -19.402 -23.218  0.00  0.00    +0.000 A 
ATOM     18  O   UNL     1     -43.458 -20.255 -22.393  0.00  0.00    +0.000 OA
ATOM     19  H   UNL     1     -43.245 -20.427 -24.847  0.00  0.00    +0.000 HD
ENDROOT
BRANCH  13  20
ATOM     20  C   UNL     1     -45.279 -16.632 -26.086  0.00  0.00    +0.000 C 
BRANCH  20  21
ATOM     21  C   UNL     1     -44.165 -15.682 -26.509  0.00  0.00    +0.000 C 
BRANCH  21  22
ATOM     22  O   UNL     1     -43.939 -15.819 -27.881  0.00  0.00    +0.000 OA
ATOM     23  H   UNL     1     -44.675 -16.304 -28.283  0.00  0.00    +0.000 HD
ENDBRANCH  21  22
BRANCH  21  24
ATOM     24  C   UNL     1     -44.536 -14.231 -26.180  0.00  0.00    +0.000 C 
BRANCH  24  25
ATOM     25  O   UNL     1     -44.075 -13.888 -24.907  0.00  0.00    +0.000 OA
ATOM     26  H   UNL     1     -43.897 -12.935 -24.873  0.00  0.00    +0.000 HD
ENDBRANCH  24  25
BRANCH  24  27
ATOM     27  C   UNL     1     -46.042 -13.946 -26.273  0.00  0.00    +0.000 C 
BRANCH  27  28
ATOM     28  O   UNL     1     -46.571 -13.703 -25.006  0.00  0.00    +0.000 OA
ATOM     29  H   UNL     1     -46.214 -14.349 -24.376  0.00  0.00    +0.000 HD
ENDBRANCH  27  28
BRANCH  27  30
ATOM     30  C   UNL     1     -46.380 -12.786 -27.204  0.00  0.00    +0.000 C 
BRANCH  30  31
ATOM     31  O   UNL     1     -47.722 -12.848 -27.581  0.00  0.00    +0.000 OA
ATOM     32  H   UNL     1     -48.139 -13.621 -27.170  0.00  0.00    +0.000 HD
ENDBRANCH  30  31
ENDBRANCH  27  30
ENDBRANCH  24  27
ENDBRANCH  21  24
ENDBRANCH  20  21
ENDBRANCH  13  20
TORSDOF 9
ENDMDL
MODEL 3
REMARK VINA RESULT:      -6.0      1.831      4.686
REMARK  Name = ZINC000230157758 PubChem-100900615
REMARK  9 active torsions:
REMARK  status: ('A' for Active; 'I' for Inactive)
REMARK    1  A    between atoms: N_13  and  C_20
REMARK    2  A    between atoms: C_20  and  C_21
REMARK    3  A    between atoms: C_21  and  O_22
REMARK    4  A    between atoms: C_21  and  C_24
REMARK    5  A    between atoms: C_24  and  O_25
REMARK    6  A    between atoms: C_24  and  C_27
REMARK    7  A    between atoms: C_27  and  O_28
REMARK    8  A    between atoms: C_27  and  C_30
REMARK    9  A    between atoms: C_30  and  O_31
REMARK                            x       y       z     vdW  Elec       q    Type
REMARK                         _______ _______ _______ _____ _____    ______ ____
ROOT
ATOM      1  C   UNL     1     -46.451 -15.894 -18.423  0.00  0.00    +0.000 C 
ATOM      2  C   UNL     1     -46.111 -16.069 -19.865  0.00  0.00    +0.000 A 
ATOM      3  C   UNL     1     -46.225 -14.967 -20.719  0.00  0.00    +0.000 A 
ATOM      4  C   UNL     1     -45.915 -15.095 -22.075  0.00  0.00    +0.000 A 
ATOM      5  C   UNL     1     -46.025 -14.004 -22.934  0.00  0.00    +0.000 A 
ATOM      6  C   UNL     1     -45.709 -14.154 -24.290  0.00  0.00    +0.000 A 
ATOM      7  C   UNL     1     -45.281 -15.410 -24.770  0.00  0.00    +0.000 A 
ATOM      8  N   UNL     1     -45.186 -16.462 -23.905  0.00  0.00    +0.000 NA
ATOM      9  C   UNL     1     -45.487 -16.338 -22.586  0.00  0.00    +0.000 A 
ATOM     10  C   UNL     1     -45.374 -17.438 -21.733  0.00  0.00    +0.000 A 
ATOM     11  C   UNL     1     -45.684 -17.311 -20.374  0.00  0.00    +0.000 A 
ATOM     12  C   UNL     1     -45.550 -18.509 -19.496  0.00  0.00    +0.000 C 
ATOM     13  N   UNL     1     -44.969 -15.564 -26.093  0.00  0.00    +0.000 N 
ATOM     14  C   UNL     1     -45.077 -14.503 -26.952  0.00  0.00    +0.000 A 
ATOM     15  O   UNL     1     -44.798 -14.635 -28.175  0.00  0.00    +0.000 OA
ATOM     16  N   UNL     1     -45.488 -13.291 -26.496  0.00  0.00    +0.000 N 
ATOM     17  C   UNL     1     -45.805 -13.091 -25.192  0.00  0.00    +0.000 A 
ATOM     18  O   UNL     1     -46.181 -11.950 -24.812  0.00  0.00    +0.000 OA
ATOM     19  H   UNL     1     -45.559 -12.539 -27.128  0.00  0.00    +0.000 HD
ENDROOT
BRANCH  13  20
ATOM     20  C   UNL     1     -44.512 -16.862 -26.592  0.00  0.00    +0.000 C 
BRANCH  20  21
ATOM     21  C   UNL     1     -43.001 -16.991 -26.449  0.00  0.00    +0.000 C 
BRANCH  21  22
ATOM     22  O   UNL     1     -42.709 -17.985 -25.512  0.00  0.00    +0.000 OA
ATOM     23  H   UNL     1     -42.911 -17.658 -24.621  0.00  0.00    +0.000 HD
ENDBRANCH  21  22
BRANCH  21  24
ATOM     24  C   UNL     1     -42.355 -17.334 -27.797  0.00  0.00    +0.000 C 
BRANCH  24  25
ATOM     25  O   UNL     1     -43.039 -16.702 -28.838  0.00  0.00    +0.000 OA
ATOM     26  H   UNL     1     -42.440 -16.577 -29.590  0.00  0.00    +0.000 HD
ENDBRANCH  24  25
BRANCH  24  27
ATOM     27  C   UNL     1     -42.280 -18.842 -28.075  0.00  0.00    +0.000 C 
BRANCH  27  28
ATOM     28  O   UNL     1     -43.508 -19.449 -27.813  0.00  0.00    +0.000 OA
ATOM     29  H   UNL     1     -43.707 -19.381 -26.865  0.00  0.00    +0.000 HD
ENDBRANCH  27  28
BRANCH  27  30
ATOM     30  C   UNL     1     -41.836 -19.172 -29.497  0.00  0.00    +0.000 C 
BRANCH  30  31
ATOM     31  O   UNL     1     -42.934 -19.172 -30.356  0.00  0.00    +0.000 OA
ATOM     32  H   UNL     1     -42.839 -19.888 -31.004  0.00  0.00    +0.000 HD
ENDBRANCH  30  31
ENDBRANCH  27  30
ENDBRANCH  24  27
ENDBRANCH  21  24
ENDBRANCH  20  21
ENDBRANCH  13  20
TORSDOF 9
ENDMDL
