MODEL 1
REMARK VINA RESULT:      -6.2      0.000      0.000
REMARK  Name = ZINC000003831424 ZINC03831424 PubChem-6328150
REMARK  9 active torsions:
REMARK  status: ('A' for Active; 'I' for Inactive)
REMARK    1  A    between atoms: N_9  and  C_20
REMARK    2  A    between atoms: C_20  and  C_21
REMARK    3  A    between atoms: C_21  and  O_22
REMARK    4  A    between atoms: C_21  and  C_24
REMARK    5  A    between atoms: C_24  and  O_25
REMARK    6  A    between atoms: C_24  and  C_27
REMARK    7  A    between atoms: C_27  and  O_28
REMARK    8  A    between atoms: C_27  and  C_30
REMARK    9  A    between atoms: C_30  and  O_31
REMARK                            x       y       z     vdW  Elec       q    Type
REMARK                         _______ _______ _______ _____ _____    ______ ____
ROOT
ATOM      1  C   UNL     1     -47.525 -13.382 -20.232  0.00  0.00    +0.000 C 
ATOM      2  C   UNL     1     -46.807 -14.689 -20.257  0.00  0.00    +0.000 A 
ATOM      3  C   UNL     1     -46.220 -15.108 -21.452  0.00  0.00    +0.000 A 
ATOM      4  C   UNL     1     -45.535 -16.324 -21.520  0.00  0.00    +0.000 A 
ATOM      5  C   UNL     1     -45.423 -17.146 -20.366  0.00  0.00    +0.000 A 
ATOM      6  C   UNL     1     -46.032 -16.716 -19.176  0.00  0.00    +0.000 A 
ATOM      7  C   UNL     1     -46.717 -15.501 -19.113  0.00  0.00    +0.000 A 
ATOM      8  C   UNL     1     -47.335 -15.095 -17.817  0.00  0.00    +0.000 C 
ATOM      9  N   UNL     1     -44.743 -18.340 -20.427  0.00  0.00    +0.000 N 
ATOM     10  C   UNL     1     -44.219 -18.758 -21.618  0.00  0.00    +0.000 A 
ATOM     11  N   UNL     1     -43.586 -19.955 -21.745  0.00  0.00    +0.000 NA
ATOM     12  C   UNL     1     -43.065 -20.351 -22.937  0.00  0.00    +0.000 A 
ATOM     13  O   UNL     1     -42.482 -21.462 -23.024  0.00  0.00    +0.000 OA
ATOM     14  N   UNL     1     -43.166 -19.555 -24.038  0.00  0.00    +0.000 N 
ATOM     15  C   UNL     1     -43.787 -18.345 -24.001  0.00  0.00    +0.000 A 
ATOM     16  O   UNL     1     -43.861 -17.647 -25.046  0.00  0.00    +0.000 OA
ATOM     17  C   UNL     1     -44.341 -17.896 -22.804  0.00  0.00    +0.000 A 
ATOM     18  N   UNL     1     -44.992 -16.715 -22.702  0.00  0.00    +0.000 NA
ATOM     19  H   UNL     1     -42.777 -19.864 -24.887  0.00  0.00    +0.000 HD
ENDROOT
BRANCH   9  20
ATOM     20  C   UNL     1     -44.596 -19.188 -19.235  0.00  0.00    +0.000 C 
BRANCH  20  21
ATOM     21  C   UNL     1     -43.172 -19.153 -18.661  0.00  0.00    +0.000 C 
BRANCH  21  22
ATOM     22  O   UNL     1     -43.060 -18.162 -17.683  0.00  0.00    +0.000 OA
ATOM     23  H   UNL     1     -42.630 -17.379 -18.064  0.00  0.00    +0.000 HD
ENDBRANCH  21  22
BRANCH  21  24
ATOM     24  C   UNL     1     -42.737 -20.511 -18.111  0.00  0.00    +0.000 C 
BRANCH  24  25
ATOM     25  O   UNL     1     -43.790 -21.426 -18.212  0.00  0.00    +0.000 OA
ATOM     26  H   UNL     1     -44.582 -20.973 -18.546  0.00  0.00    +0.000 HD
ENDBRANCH  24  25
BRANCH  24  27
ATOM     27  C   UNL     1     -41.508 -21.045 -18.844  0.00  0.00    +0.000 C 
BRANCH  27  28
ATOM     28  O   UNL     1     -41.886 -21.767 -19.980  0.00  0.00    +0.000 OA
ATOM     29  H   UNL     1     -41.722 -21.232 -20.773  0.00  0.00    +0.000 HD
ENDBRANCH  27  28
BRANCH  27  30
ATOM     30  C   UNL     1     -40.684 -21.924 -17.920  0.00  0.00    +0.000 C 
BRANCH  30  31
ATOM     31  O   UNL     1     -41.247 -21.929 -16.644  0.00  0.00    +0.000 OA
ATOM     32  H   UNL     1     -41.292 -21.022 -16.306  0.00  0.00    +0.000 HD
ENDBRANCH  30  31
ENDBRANCH  27  30
ENDBRANCH  24  27
ENDBRANCH  21  24
ENDBRANCH  20  21
ENDBRANCH   9  20
TORSDOF 9
ENDMDL
MODEL 2
REMARK VINA RESULT:      -6.0     14.231     18.158
REMARK  Name = ZINC000003831424 ZINC03831424 PubChem-6328150
REMARK  9 active torsions:
REMARK  status: ('A' for Active; 'I' for Inactive)
REMARK    1  A    between atoms: N_9  and  C_20
REMARK    2  A    between atoms: C_20  and  C_21
REMARK    3  A    between atoms: C_21  and  O_22
REMARK    4  A    between atoms: C_21  and  C_24
REMARK    5  A    between atoms: C_24  and  O_25
REMARK    6  A    between atoms: C_24  and  C_27
REMARK    7  A    between atoms: C_27  and  O_28
REMARK    8  A    between atoms: C_27  and  C_30
REMARK    9  A    between atoms: C_30  and  O_31
REMARK                            x       y       z     vdW  Elec       q    Type
REMARK                         _______ _______ _______ _____ _____    ______ ____
ROOT
ATOM      1  C   UNL     1     -45.616 -11.868 -33.764  0.00  0.00    +0.000 C 
ATOM      2  C   UNL     1     -45.920 -10.463 -33.370  0.00  0.00    +0.000 A 
ATOM      3  C   UNL     1     -46.003 -10.152 -32.011  0.00  0.00    +0.000 A 
ATOM      4  C   UNL     1     -46.282  -8.847 -31.596  0.00  0.00    +0.000 A 
ATOM      5  C   UNL     1     -46.478  -7.818 -32.557  0.00  0.00    +0.000 A 
ATOM      6  C   UNL     1     -46.406  -8.152 -33.919  0.00  0.00    +0.000 A 
ATOM      7  C   UNL     1     -46.128  -9.458 -34.329  0.00  0.00    +0.000 A 
ATOM      8  C   UNL     1     -46.055  -9.747 -35.791  0.00  0.00    +0.000 C 
ATOM      9  N   UNL     1     -46.747  -6.532 -32.152  0.00  0.00    +0.000 N 
ATOM     10  C   UNL     1     -46.875  -6.256 -30.820  0.00  0.00    +0.000 A 
ATOM     11  N   UNL     1     -47.193  -5.013 -30.370  0.00  0.00    +0.000 NA
ATOM     12  C   UNL     1     -47.310  -4.757 -29.039  0.00  0.00    +0.000 A 
ATOM     13  O   UNL     1     -47.602  -3.596 -28.651  0.00  0.00    +0.000 OA
ATOM     14  N   UNL     1     -47.111  -5.744 -28.122  0.00  0.00    +0.000 N 
ATOM     15  C   UNL     1     -46.795  -7.016 -28.485  0.00  0.00    +0.000 A 
ATOM     16  O   UNL     1     -46.626  -7.896 -27.601  0.00  0.00    +0.000 OA
ATOM     17  C   UNL     1     -46.668  -7.331 -29.836  0.00  0.00    +0.000 A 
ATOM     18  N   UNL     1     -46.377  -8.579 -30.269  0.00  0.00    +0.000 NA
ATOM     19  H   UNL     1     -47.198  -5.530 -27.165  0.00  0.00    +0.000 HD
ENDROOT
BRANCH   9  20
ATOM     20  C   UNL     1     -46.925  -5.452 -33.134  0.00  0.00    +0.000 C 
BRANCH  20  21
ATOM     21  C   UNL     1     -45.722  -4.499 -33.187  0.00  0.00    +0.000 C 
BRANCH  21  22
ATOM     22  O   UNL     1     -44.694  -5.047 -33.958  0.00  0.00    +0.000 OA
ATOM     23  H   UNL     1     -43.882  -4.531 -33.828  0.00  0.00    +0.000 HD
ENDBRANCH  21  22
BRANCH  21  24
ATOM     24  C   UNL     1     -46.105  -3.111 -33.697  0.00  0.00    +0.000 C 
BRANCH  24  25
ATOM     25  O   UNL     1     -47.435  -2.833 -33.368  0.00  0.00    +0.000 OA
ATOM     26  H   UNL     1     -47.977  -2.839 -34.174  0.00  0.00    +0.000 HD
ENDBRANCH  24  25
BRANCH  24  27
ATOM     27  C   UNL     1     -45.188  -2.030 -33.126  0.00  0.00    +0.000 C 
BRANCH  27  28
ATOM     28  O   UNL     1     -44.026  -1.914 -33.894  0.00  0.00    +0.000 OA
ATOM     29  H   UNL     1     -44.088  -1.126 -34.456  0.00  0.00    +0.000 HD
ENDBRANCH  27  28
BRANCH  27  30
ATOM     30  C   UNL     1     -44.830  -2.351 -31.686  0.00  0.00    +0.000 C 
BRANCH  30  31
ATOM     31  O   UNL     1     -45.934  -2.131 -30.862  0.00  0.00    +0.000 OA
ATOM     32  H   UNL     1     -46.729  -2.490 -31.285  0.00  0.00    +0.000 HD
ENDBRANCH  30  31
ENDBRANCH  27  30
ENDBRANCH  24  27
ENDBRANCH  21  24
ENDBRANCH  20  21
ENDBRANCH   9  20
TORSDOF 9
ENDMDL
MODEL 3
REMARK VINA RESULT:      -5.6      3.639      6.565
REMARK  Name = ZINC000003831424 ZINC03831424 PubChem-6328150
REMARK  9 active torsions:
REMARK  status: ('A' for Active; 'I' for Inactive)
REMARK    1  A    between atoms: N_9  and  C_20
REMARK    2  A    between atoms: C_20  and  C_21
REMARK    3  A    between atoms: C_21  and  O_22
REMARK    4  A    between atoms: C_21  and  C_24
REMARK    5  A    between atoms: C_24  and  O_25
REMARK    6  A    between atoms: C_24  and  C_27
REMARK    7  A    between atoms: C_27  and  O_28
REMARK    8  A    between atoms: C_27  and  C_30
REMARK    9  A    between atoms: C_30  and  O_31
REMARK                            x       y       z     vdW  Elec       q    Type
REMARK                         _______ _______ _______ _____ _____    ______ ____
ROOT
ATOM      1  C   UNL     1     -46.433 -15.823 -18.462  0.00  0.00    +0.000 C 
ATOM      2  C   UNL     1     -46.154 -16.016 -19.913  0.00  0.00    +0.000 A 
ATOM      3  C   UNL     1     -46.214 -14.907 -20.760  0.00  0.00    +0.000 A 
ATOM      4  C   UNL     1     -45.956 -15.041 -22.127  0.00  0.00    +0.000 A 
ATOM      5  C   UNL     1     -45.621 -16.311 -22.670  0.00  0.00    +0.000 A 
ATOM      6  C   UNL     1     -45.579 -17.417 -21.807  0.00  0.00    +0.000 A 
ATOM      7  C   UNL     1     -45.839 -17.279 -20.441  0.00  0.00    +0.000 A 
ATOM      8  C   UNL     1     -45.770 -18.492 -19.574  0.00  0.00    +0.000 C 
ATOM      9  N   UNL     1     -45.360 -16.445 -24.013  0.00  0.00    +0.000 N 
ATOM     10  C   UNL     1     -45.474 -15.358 -24.835  0.00  0.00    +0.000 A 
ATOM     11  N   UNL     1     -45.281 -15.449 -26.178  0.00  0.00    +0.000 NA
ATOM     12  C   UNL     1     -45.392 -14.355 -26.978  0.00  0.00    +0.000 A 
ATOM     13  O   UNL     1     -45.204 -14.468 -28.217  0.00  0.00    +0.000 OA
ATOM     14  N   UNL     1     -45.703 -13.138 -26.452  0.00  0.00    +0.000 N 
ATOM     15  C   UNL     1     -45.919 -12.960 -25.120  0.00  0.00    +0.000 A 
ATOM     16  O   UNL     1     -46.210 -11.816 -24.681  0.00  0.00    +0.000 OA
ATOM     17  C   UNL     1     -45.820 -14.050 -24.259  0.00  0.00    +0.000 A 
ATOM     18  N   UNL     1     -46.044 -13.948 -22.928  0.00  0.00    +0.000 NA
ATOM     19  H   UNL     1     -45.774 -12.362 -27.053  0.00  0.00    +0.000 HD
ENDROOT
BRANCH   9  20
ATOM     20  C   UNL     1     -44.986 -17.747 -24.585  0.00  0.00    +0.000 C 
BRANCH  20  21
ATOM     21  C   UNL     1     -43.474 -17.874 -24.819  0.00  0.00    +0.000 C 
BRANCH  21  22
ATOM     22  O   UNL     1     -42.933 -18.879 -24.013  0.00  0.00    +0.000 OA
ATOM     23  H   UNL     1     -42.100 -19.191 -24.401  0.00  0.00    +0.000 HD
ENDBRANCH  21  22
BRANCH  21  24
ATOM     24  C   UNL     1     -43.134 -18.114 -26.290  0.00  0.00    +0.000 C 
BRANCH  24  25
ATOM     25  O   UNL     1     -44.302 -18.087 -27.058  0.00  0.00    +0.000 OA
ATOM     26  H   UNL     1     -44.704 -18.971 -27.070  0.00  0.00    +0.000 HD
ENDBRANCH  24  25
BRANCH  24  27
ATOM     27  C   UNL     1     -42.139 -17.080 -26.812  0.00  0.00    +0.000 C 
BRANCH  27  28
ATOM     28  O   UNL     1     -42.166 -15.927 -26.022  0.00  0.00    +0.000 OA
ATOM     29  H   UNL     1     -42.519 -15.187 -26.541  0.00  0.00    +0.000 HD
ENDBRANCH  27  28
BRANCH  27  30
ATOM     30  C   UNL     1     -42.454 -16.729 -28.255  0.00  0.00    +0.000 C 
BRANCH  30  31
ATOM     31  O   UNL     1     -42.435 -17.882 -29.039  0.00  0.00    +0.000 OA
ATOM     32  H   UNL     1     -41.742 -17.804 -29.712  0.00  0.00    +0.000 HD
ENDBRANCH  30  31
ENDBRANCH  27  30
ENDBRANCH  24  27
ENDBRANCH  21  24
ENDBRANCH  20  21
ENDBRANCH   9  20
TORSDOF 9
ENDMDL
