MODEL 1
REMARK VINA RESULT:      -6.8      0.000      0.000
REMARK  Name = ZINC000015693488 ZINC15693488 PubChem-26752795
REMARK  5 active torsions:
REMARK  status: ('A' for Active; 'I' for Inactive)
REMARK    1  A    between atoms: C_1  and  C_19
REMARK    2  A    between atoms: C_12  and  C_15
REMARK    3  A    between atoms: C_19  and  O_21
REMARK    4  A    between atoms: O_21  and  C_22
REMARK    5  A    between atoms: C_22  and  C_29
REMARK                            x       y       z     vdW  Elec       q    Type
REMARK                         _______ _______ _______ _____ _____    ______ ____
ROOT
ATOM      1  C   UNL     1     -44.914 -17.632 -23.451  0.00  0.00    +0.000 C 
ATOM      2  O   UNL     1     -45.221 -18.344 -24.446  0.00  0.00    +0.000 OA
ATOM      3  N   UNL     1     -45.015 -16.193 -23.519  0.00  0.00    +0.000 N 
ATOM      4  C   UNL     1     -44.875 -15.425 -22.276  0.00  0.00    +0.000 C 
ATOM      5  C   UNL     1     -45.758 -14.216 -22.278  0.00  0.00    +0.000 C 
ATOM      6  O   UNL     1     -46.155 -13.726 -21.190  0.00  0.00    +0.000 OA
ATOM      7  N   UNL     1     -46.090 -13.578 -23.511  0.00  0.00    +0.000 N 
ATOM      8  C   UNL     1     -45.730 -14.183 -24.753  0.00  0.00    +0.000 A 
ATOM      9  C   UNL     1     -45.194 -15.485 -24.769  0.00  0.00    +0.000 A 
ATOM     10  C   UNL     1     -44.849 -16.061 -26.001  0.00  0.00    +0.000 A 
ATOM     11  C   UNL     1     -45.040 -15.358 -27.193  0.00  0.00    +0.000 A 
ATOM     12  C   UNL     1     -45.569 -14.061 -27.173  0.00  0.00    +0.000 A 
ATOM     13  C   UNL     1     -45.928 -13.485 -25.947  0.00  0.00    +0.000 A 
ATOM     14  H   UNL     1     -46.569 -12.718 -23.505  0.00  0.00    +0.000 HD
ENDROOT
BRANCH  12  15
ATOM     15  C   UNL     1     -45.827 -13.330 -28.458  0.00  0.00    +0.000 C 
ATOM     16  F   UNL     1     -47.182 -13.086 -28.582  0.00  0.00    +0.000 F 
ATOM     17  F   UNL     1     -45.404 -14.085 -29.538  0.00  0.00    +0.000 F 
ATOM     18  F   UNL     1     -45.148 -12.123 -28.471  0.00  0.00    +0.000 F 
ENDBRANCH  12  15
BRANCH   1  19
ATOM     19  C   UNL     1     -44.482 -18.308 -22.182  0.00  0.00    +0.000 C 
ATOM     20  C   UNL     1     -43.622 -19.516 -22.505  0.00  0.00    +0.000 C 
BRANCH  19  21
ATOM     21  O   UNL     1     -45.615 -18.721 -21.427  0.00  0.00    +0.000 OA
BRANCH  21  22
ATOM     22  C   UNL     1     -45.628 -18.727 -20.027  0.00  0.00    +0.000 C 
ATOM     23  O   UNL     1     -45.441 -19.808 -19.404  0.00  0.00    +0.000 OA
BRANCH  22  29
ATOM     24  C   UNL     1     -44.123 -14.465 -17.665  0.00  0.00    +0.000 C 
ATOM     25  C   UNL     1     -45.170 -15.404 -18.164  0.00  0.00    +0.000 A 
ATOM     26  C   UNL     1     -46.509 -15.077 -17.939  0.00  0.00    +0.000 A 
ATOM     27  C   UNL     1     -47.523 -15.919 -18.385  0.00  0.00    +0.000 A 
ATOM     28  C   UNL     1     -47.204 -17.096 -19.059  0.00  0.00    +0.000 A 
ATOM     29  C   UNL     1     -45.871 -17.456 -19.300  0.00  0.00    +0.000 A 
ATOM     30  C   UNL     1     -44.835 -16.594 -18.846  0.00  0.00    +0.000 A 
ATOM     31  C   UNL     1     -43.390 -16.916 -19.075  0.00  0.00    +0.000 C 
ENDBRANCH  22  29
ENDBRANCH  21  22
ENDBRANCH  19  21
ENDBRANCH   1  19
TORSDOF 5
ENDMDL
MODEL 2
REMARK VINA RESULT:      -6.8     11.990     15.455
REMARK  Name = ZINC000015693488 ZINC15693488 PubChem-26752795
REMARK  5 active torsions:
REMARK  status: ('A' for Active; 'I' for Inactive)
REMARK    1  A    between atoms: C_1  and  C_19
REMARK    2  A    between atoms: C_12  and  C_15
REMARK    3  A    between atoms: C_19  and  O_21
REMARK    4  A    between atoms: O_21  and  C_22
REMARK    5  A    between atoms: C_22  and  C_29
REMARK                            x       y       z     vdW  Elec       q    Type
REMARK                         _______ _______ _______ _____ _____    ______ ____
ROOT
ATOM      1  C   UNL     1     -45.615  -3.501 -32.246  0.00  0.00    +0.000 C 
ATOM      2  O   UNL     1     -45.778  -2.589 -31.390  0.00  0.00    +0.000 OA
ATOM      3  N   UNL     1     -44.326  -3.706 -32.863  0.00  0.00    +0.000 N 
ATOM      4  C   UNL     1     -44.124  -4.916 -33.670  0.00  0.00    +0.000 C 
ATOM      5  C   UNL     1     -42.725  -5.434 -33.538  0.00  0.00    +0.000 C 
ATOM      6  O   UNL     1     -42.487  -6.655 -33.722  0.00  0.00    +0.000 OA
ATOM      7  N   UNL     1     -41.653  -4.529 -33.276  0.00  0.00    +0.000 N 
ATOM      8  C   UNL     1     -41.924  -3.162 -32.966  0.00  0.00    +0.000 A 
ATOM      9  C   UNL     1     -43.251  -2.741 -32.758  0.00  0.00    +0.000 A 
ATOM     10  C   UNL     1     -43.496  -1.394 -32.453  0.00  0.00    +0.000 A 
ATOM     11  C   UNL     1     -42.439  -0.485 -32.350  0.00  0.00    +0.000 A 
ATOM     12  C   UNL     1     -41.120  -0.907 -32.562  0.00  0.00    +0.000 A 
ATOM     13  C   UNL     1     -40.869  -2.254 -32.854  0.00  0.00    +0.000 A 
ATOM     14  H   UNL     1     -40.722  -4.850 -33.308  0.00  0.00    +0.000 HD
ENDROOT
BRANCH  12  15
ATOM     15  C   UNL     1     -39.982   0.058 -32.394  0.00  0.00    +0.000 C 
ATOM     16  F   UNL     1     -40.071   0.659 -31.153  0.00  0.00    +0.000 F 
ATOM     17  F   UNL     1     -40.026   1.034 -33.374  0.00  0.00    +0.000 F 
ATOM     18  F   UNL     1     -38.770  -0.606 -32.489  0.00  0.00    +0.000 F 
ENDBRANCH  12  15
BRANCH   1  19
ATOM     19  C   UNL     1     -46.774  -4.394 -32.582  0.00  0.00    +0.000 C 
ATOM     20  C   UNL     1     -47.596  -3.779 -33.699  0.00  0.00    +0.000 C 
BRANCH  19  21
ATOM     21  O   UNL     1     -47.599  -4.591 -31.440  0.00  0.00    +0.000 OA
BRANCH  21  22
ATOM     22  C   UNL     1     -47.449  -5.686 -30.579  0.00  0.00    +0.000 C 
ATOM     23  O   UNL     1     -47.542  -6.857 -31.036  0.00  0.00    +0.000 OA
BRANCH  22  29
ATOM     24  C   UNL     1     -45.404  -6.845 -26.054  0.00  0.00    +0.000 C 
ATOM     25  C   UNL     1     -46.217  -5.979 -26.958  0.00  0.00    +0.000 A 
ATOM     26  C   UNL     1     -46.796  -4.828 -26.420  0.00  0.00    +0.000 A 
ATOM     27  C   UNL     1     -47.563  -3.987 -27.221  0.00  0.00    +0.000 A 
ATOM     28  C   UNL     1     -47.756  -4.294 -28.567  0.00  0.00    +0.000 A 
ATOM     29  C   UNL     1     -47.190  -5.442 -29.138  0.00  0.00    +0.000 A 
ATOM     30  C   UNL     1     -46.406  -6.300 -28.319  0.00  0.00    +0.000 A 
ATOM     31  C   UNL     1     -45.768  -7.541 -28.867  0.00  0.00    +0.000 C 
ENDBRANCH  22  29
ENDBRANCH  21  22
ENDBRANCH  19  21
ENDBRANCH   1  19
TORSDOF 5
ENDMDL
MODEL 3
REMARK VINA RESULT:      -6.7     12.727     15.594
REMARK  Name = ZINC000015693488 ZINC15693488 PubChem-26752795
REMARK  5 active torsions:
REMARK  status: ('A' for Active; 'I' for Inactive)
REMARK    1  A    between atoms: C_1  and  C_19
REMARK    2  A    between atoms: C_12  and  C_15
REMARK    3  A    between atoms: C_19  and  O_21
REMARK    4  A    between atoms: O_21  and  C_22
REMARK    5  A    between atoms: C_22  and  C_29
REMARK                            x       y       z     vdW  Elec       q    Type
REMARK                         _______ _______ _______ _____ _____    ______ ____
ROOT
ATOM      1  C   UNL     1     -45.766  -3.430 -32.114  0.00  0.00    +0.000 C 
ATOM      2  O   UNL     1     -45.924  -2.444 -31.344  0.00  0.00    +0.000 OA
ATOM      3  N   UNL     1     -44.475  -3.704 -32.700  0.00  0.00    +0.000 N 
ATOM      4  C   UNL     1     -44.282  -4.983 -33.395  0.00  0.00    +0.000 C 
ATOM      5  C   UNL     1     -42.891  -5.503 -33.207  0.00  0.00    +0.000 C 
ATOM      6  O   UNL     1     -42.667  -6.738 -33.280  0.00  0.00    +0.000 OA
ATOM      7  N   UNL     1     -41.810  -4.591 -33.018  0.00  0.00    +0.000 N 
ATOM      8  C   UNL     1     -42.066  -3.199 -32.833  0.00  0.00    +0.000 A 
ATOM      9  C   UNL     1     -43.390  -2.746 -32.673  0.00  0.00    +0.000 A 
ATOM     10  C   UNL     1     -43.620  -1.374 -32.491  0.00  0.00    +0.000 A 
ATOM     11  C   UNL     1     -42.554  -0.472 -32.461  0.00  0.00    +0.000 A 
ATOM     12  C   UNL     1     -41.238  -0.926 -32.625  0.00  0.00    +0.000 A 
ATOM     13  C   UNL     1     -41.001  -2.296 -32.794  0.00  0.00    +0.000 A 
ATOM     14  H   UNL     1     -40.883  -4.923 -33.015  0.00  0.00    +0.000 HD
ENDROOT
BRANCH  12  15
ATOM     15  C   UNL     1     -40.090   0.037 -32.534  0.00  0.00    +0.000 C 
ATOM     16  F   UNL     1     -38.905  -0.644 -32.742  0.00  0.00    +0.000 F 
ATOM     17  F   UNL     1     -40.055   0.632 -31.286  0.00  0.00    +0.000 F 
ATOM     18  F   UNL     1     -40.216   1.029 -33.492  0.00  0.00    +0.000 F 
ENDBRANCH  12  15
BRANCH   1  19
ATOM     19  C   UNL     1     -46.933  -4.337 -32.379  0.00  0.00    +0.000 C 
ATOM     20  C   UNL     1     -47.753  -3.802 -33.538  0.00  0.00    +0.000 C 
BRANCH  19  21
ATOM     21  O   UNL     1     -47.756  -4.439 -31.223  0.00  0.00    +0.000 OA
BRANCH  21  22
ATOM     22  C   UNL     1     -47.436  -5.264 -30.137  0.00  0.00    +0.000 C 
ATOM     23  O   UNL     1     -47.626  -4.851 -28.961  0.00  0.00    +0.000 OA
BRANCH  22  29
ATOM     24  C   UNL     1     -43.631  -8.654 -30.330  0.00  0.00    +0.000 C 
ATOM     25  C   UNL     1     -45.061  -8.255 -30.494  0.00  0.00    +0.000 A 
ATOM     26  C   UNL     1     -45.968  -9.223 -30.929  0.00  0.00    +0.000 A 
ATOM     27  C   UNL     1     -47.312  -8.902 -31.097  0.00  0.00    +0.000 A 
ATOM     28  C   UNL     1     -47.756  -7.608 -30.832  0.00  0.00    +0.000 A 
ATOM     29  C   UNL     1     -46.871  -6.612 -30.396  0.00  0.00    +0.000 A 
ATOM     30  C   UNL     1     -45.499  -6.941 -30.223  0.00  0.00    +0.000 A 
ATOM     31  C   UNL     1     -44.501  -5.926 -29.755  0.00  0.00    +0.000 C 
ENDBRANCH  22  29
ENDBRANCH  21  22
ENDBRANCH  19  21
ENDBRANCH   1  19
TORSDOF 5
ENDMDL
