MODEL 1
REMARK VINA RESULT:      -7.7      0.000      0.000
REMARK  Name = ZINC000032678714 ZINC32678714 CSC028068244 MCULE-2237337451 MolPort-005-701-896 PubChem-39911757
REMARK  4 active torsions:
REMARK  status: ('A' for Active; 'I' for Inactive)
REMARK    1  A    between atoms: C_1  and  N_19
REMARK    2  A    between atoms: C_5  and  C_7
REMARK    3  A    between atoms: C_17  and  C_25
REMARK    4  A    between atoms: C_21  and  C_30
REMARK                            x       y       z     vdW  Elec       q    Type
REMARK                         _______ _______ _______ _____ _____    ______ ____
ROOT
ATOM      1  C   UNL     1     -46.677  -7.412 -31.823  0.00  0.00    +0.000 A 
ATOM      2  C   UNL     1     -46.296  -8.741 -31.582  0.00  0.00    +0.000 A 
ATOM      3  C   UNL     1     -46.067  -9.181 -30.277  0.00  0.00    +0.000 A 
ATOM      4  C   UNL     1     -46.227  -8.300 -29.205  0.00  0.00    +0.000 A 
ATOM      5  C   UNL     1     -46.621  -6.974 -29.431  0.00  0.00    +0.000 A 
ATOM      6  C   UNL     1     -46.850  -6.539 -30.744  0.00  0.00    +0.000 A 
ENDROOT
BRANCH   5   7
ATOM      7  C   UNL     1     -46.794  -6.047 -28.301  0.00  0.00    +0.000 A 
ATOM      8  N   UNL     1     -47.021  -4.715 -28.469  0.00  0.00    +0.000 NA
ATOM      9  C   UNL     1     -47.110  -4.273 -27.207  0.00  0.00    +0.000 A 
ATOM     10  C   UNL     1     -47.340  -2.969 -26.776  0.00  0.00    +0.000 A 
ATOM     11  C   UNL     1     -47.392  -2.746 -25.387  0.00  0.00    +0.000 A 
ATOM     12  C   UNL     1     -47.216  -3.817 -24.481  0.00  0.00    +0.000 A 
ATOM     13  C   UNL     1     -46.986  -5.122 -24.955  0.00  0.00    +0.000 A 
ATOM     14  C   UNL     1     -46.941  -5.304 -26.333  0.00  0.00    +0.000 A 
ATOM     15  N   UNL     1     -46.737  -6.449 -27.002  0.00  0.00    +0.000 N 
ATOM     16  H   UNL     1     -46.584  -7.352 -26.643  0.00  0.00    +0.000 HD
ENDBRANCH   5   7
BRANCH   1  19
ATOM     17  C   UNL     1     -46.092  -6.073 -33.916  0.00  0.00    +0.000 C 
ATOM     18  O   UNL     1     -46.021  -6.242 -35.161  0.00  0.00    +0.000 OA
ATOM     19  N   UNL     1     -46.943  -6.938 -33.150  0.00  0.00    +0.000 N 
ATOM     20  H   UNL     1     -47.782  -7.230 -33.572  0.00  0.00    +0.000 HD
BRANCH  17  25
ATOM     21  C   UNL     1     -44.670  -3.005 -32.510  0.00  0.00    +0.000 A 
ATOM     22  C   UNL     1     -43.637  -3.934 -32.450  0.00  0.00    +0.000 A 
ATOM     23  C   UNL     1     -42.258  -3.696 -31.940  0.00  0.00    +0.000 C 
ATOM     24  N   UNL     1     -44.024  -5.129 -32.937  0.00  0.00    +0.000 N 
ATOM     25  C   UNL     1     -45.314  -4.982 -33.297  0.00  0.00    +0.000 A 
ATOM     26  C   UNL     1     -45.744  -3.685 -33.061  0.00  0.00    +0.000 A 
ATOM     27  C   UNL     1     -47.067  -3.104 -33.438  0.00  0.00    +0.000 C 
ATOM     28  H   UNL     1     -43.477  -5.944 -33.012  0.00  0.00    +0.000 HD
BRANCH  21  30
ATOM     29  C   UNL     1     -43.835  -0.570 -32.837  0.00  0.00    +0.000 C 
ATOM     30  C   UNL     1     -44.643  -1.581 -32.100  0.00  0.00    +0.000 C 
ATOM     31  O   UNL     1     -45.312  -1.197 -31.104  0.00  0.00    +0.000 OA
ENDBRANCH  21  30
ENDBRANCH  17  25
ENDBRANCH   1  19
TORSDOF 4
ENDMDL
MODEL 2
REMARK VINA RESULT:      -7.6      1.848      2.706
REMARK  Name = ZINC000032678714 ZINC32678714 CSC028068244 MCULE-2237337451 MolPort-005-701-896 PubChem-39911757
REMARK  4 active torsions:
REMARK  status: ('A' for Active; 'I' for Inactive)
REMARK    1  A    between atoms: C_1  and  N_19
REMARK    2  A    between atoms: C_5  and  C_7
REMARK    3  A    between atoms: C_17  and  C_25
REMARK    4  A    between atoms: C_21  and  C_30
REMARK                            x       y       z     vdW  Elec       q    Type
REMARK                         _______ _______ _______ _____ _____    ______ ____
ROOT
ATOM      1  C   UNL     1     -47.335  -4.933 -30.912  0.00  0.00    +0.000 A 
ATOM      2  C   UNL     1     -46.877  -6.255 -31.006  0.00  0.00    +0.000 A 
ATOM      3  C   UNL     1     -46.495  -6.951 -29.856  0.00  0.00    +0.000 A 
ATOM      4  C   UNL     1     -46.578  -6.333 -28.606  0.00  0.00    +0.000 A 
ATOM      5  C   UNL     1     -47.047  -5.017 -28.498  0.00  0.00    +0.000 A 
ATOM      6  C   UNL     1     -47.429  -4.325 -29.655  0.00  0.00    +0.000 A 
ENDROOT
BRANCH   5   7
ATOM      7  C   UNL     1     -47.138  -4.367 -27.179  0.00  0.00    +0.000 A 
ATOM      8  N   UNL     1     -47.242  -3.018 -27.029  0.00  0.00    +0.000 NA
ATOM      9  C   UNL     1     -47.295  -2.877 -25.697  0.00  0.00    +0.000 A 
ATOM     10  C   UNL     1     -47.406  -1.694 -24.971  0.00  0.00    +0.000 A 
ATOM     11  C   UNL     1     -47.442  -1.798 -23.568  0.00  0.00    +0.000 A 
ATOM     12  C   UNL     1     -47.369  -3.061 -22.939  0.00  0.00    +0.000 A 
ATOM     13  C   UNL     1     -47.257  -4.236 -23.707  0.00  0.00    +0.000 A 
ATOM     14  C   UNL     1     -47.224  -4.094 -25.091  0.00  0.00    +0.000 A 
ATOM     15  N   UNL     1     -47.123  -5.065 -26.011  0.00  0.00    +0.000 N 
ATOM     16  H   UNL     1     -47.055  -6.037 -25.875  0.00  0.00    +0.000 HD
ENDBRANCH   5   7
BRANCH   1  19
ATOM     17  C   UNL     1     -46.927  -3.850 -33.187  0.00  0.00    +0.000 C 
ATOM     18  O   UNL     1     -47.433  -3.843 -34.338  0.00  0.00    +0.000 OA
ATOM     19  N   UNL     1     -47.756  -4.201 -32.070  0.00  0.00    +0.000 N 
ATOM     20  H   UNL     1     -48.697  -3.914 -32.103  0.00  0.00    +0.000 HD
BRANCH  17  25
ATOM     21  C   UNL     1     -43.290  -3.539 -32.886  0.00  0.00    +0.000 A 
ATOM     22  C   UNL     1     -43.780  -2.277 -32.571  0.00  0.00    +0.000 A 
ATOM     23  C   UNL     1     -42.978  -1.084 -32.180  0.00  0.00    +0.000 C 
ATOM     24  N   UNL     1     -45.125  -2.241 -32.647  0.00  0.00    +0.000 N 
ATOM     25  C   UNL     1     -45.508  -3.476 -33.027  0.00  0.00    +0.000 A 
ATOM     26  C   UNL     1     -44.408  -4.306 -33.173  0.00  0.00    +0.000 A 
ATOM     27  C   UNL     1     -44.431  -5.771 -33.465  0.00  0.00    +0.000 C 
ATOM     28  H   UNL     1     -45.709  -1.470 -32.463  0.00  0.00    +0.000 HD
BRANCH  21  30
ATOM     29  C   UNL     1     -41.387  -5.035 -31.950  0.00  0.00    +0.000 C 
ATOM     30  C   UNL     1     -41.879  -3.995 -32.896  0.00  0.00    +0.000 C 
ATOM     31  O   UNL     1     -41.061  -3.501 -33.716  0.00  0.00    +0.000 OA
ENDBRANCH  21  30
ENDBRANCH  17  25
ENDBRANCH   1  19
TORSDOF 4
ENDMDL
MODEL 3
REMARK VINA RESULT:      -7.1      3.632      7.268
REMARK  Name = ZINC000032678714 ZINC32678714 CSC028068244 MCULE-2237337451 MolPort-005-701-896 PubChem-39911757
REMARK  4 active torsions:
REMARK  status: ('A' for Active; 'I' for Inactive)
REMARK    1  A    between atoms: C_1  and  N_19
REMARK    2  A    between atoms: C_5  and  C_7
REMARK    3  A    between atoms: C_17  and  C_25
REMARK    4  A    between atoms: C_21  and  C_30
REMARK                            x       y       z     vdW  Elec       q    Type
REMARK                         _______ _______ _______ _____ _____    ______ ____
ROOT
ATOM      1  C   UNL     1     -47.370  -7.587 -30.192  0.00  0.00    +0.000 A 
ATOM      2  C   UNL     1     -47.511  -8.498 -31.248  0.00  0.00    +0.000 A 
ATOM      3  C   UNL     1     -47.104  -8.148 -32.538  0.00  0.00    +0.000 A 
ATOM      4  C   UNL     1     -46.544  -6.890 -32.776  0.00  0.00    +0.000 A 
ATOM      5  C   UNL     1     -46.385  -5.976 -31.726  0.00  0.00    +0.000 A 
ATOM      6  C   UNL     1     -46.796  -6.335 -30.434  0.00  0.00    +0.000 A 
ENDROOT
BRANCH   5   7
ATOM      7  C   UNL     1     -45.791  -4.653 -31.976  0.00  0.00    +0.000 A 
ATOM      8  N   UNL     1     -44.995  -4.394 -33.050  0.00  0.00    +0.000 NA
ATOM      9  C   UNL     1     -44.688  -3.100 -32.880  0.00  0.00    +0.000 A 
ATOM     10  C   UNL     1     -43.890  -2.301 -33.694  0.00  0.00    +0.000 A 
ATOM     11  C   UNL     1     -43.710  -0.960 -33.308  0.00  0.00    +0.000 A 
ATOM     12  C   UNL     1     -44.325  -0.462 -32.136  0.00  0.00    +0.000 A 
ATOM     13  C   UNL     1     -45.125  -1.300 -31.338  0.00  0.00    +0.000 A 
ATOM     14  C   UNL     1     -45.280  -2.620 -31.751  0.00  0.00    +0.000 A 
ATOM     15  N   UNL     1     -45.990  -3.587 -31.153  0.00  0.00    +0.000 N 
ATOM     16  H   UNL     1     -46.521  -3.539 -30.326  0.00  0.00    +0.000 HD
ENDBRANCH   5   7
BRANCH   1  19
ATOM     17  C   UNL     1     -47.014  -8.760 -27.953  0.00  0.00    +0.000 C 
ATOM     18  O   UNL     1     -47.023  -8.484 -26.726  0.00  0.00    +0.000 OA
ATOM     19  N   UNL     1     -47.756  -7.926 -28.853  0.00  0.00    +0.000 N 
ATOM     20  H   UNL     1     -48.605  -7.553 -28.523  0.00  0.00    +0.000 HD
BRANCH  17  25
ATOM     21  C   UNL     1     -44.692 -11.275 -29.256  0.00  0.00    +0.000 A 
ATOM     22  C   UNL     1     -45.851 -11.983 -28.960  0.00  0.00    +0.000 A 
ATOM     23  C   UNL     1     -46.075 -13.442 -29.160  0.00  0.00    +0.000 C 
ATOM     24  N   UNL     1     -46.805 -11.174 -28.459  0.00  0.00    +0.000 N 
ATOM     25  C   UNL     1     -46.260  -9.942 -28.414  0.00  0.00    +0.000 A 
ATOM     26  C   UNL     1     -44.965  -9.961 -28.907  0.00  0.00    +0.000 A 
ATOM     27  C   UNL     1     -44.080  -8.779 -29.132  0.00  0.00    +0.000 C 
ATOM     28  H   UNL     1     -47.714 -11.430 -28.181  0.00  0.00    +0.000 HD
BRANCH  21  30
ATOM     29  C   UNL     1     -43.171 -11.734 -31.308  0.00  0.00    +0.000 C 
ATOM     30  C   UNL     1     -43.431 -11.789 -29.842  0.00  0.00    +0.000 C 
ATOM     31  O   UNL     1     -42.547 -12.290 -29.099  0.00  0.00    +0.000 OA
ENDBRANCH  21  30
ENDBRANCH  17  25
ENDBRANCH   1  19
TORSDOF 4
ENDMDL
