MODEL 1
REMARK VINA RESULT:      -7.6      0.000      0.000
REMARK  Name = ZINC000002104886 ZINC02104886 PubChem-1759855
REMARK  3 active torsions:
REMARK  status: ('A' for Active; 'I' for Inactive)
REMARK    1  A    between atoms: C_12  and  C_20
REMARK    2  A    between atoms: N_27  and  C_31
REMARK    3  A    between atoms: C_36  and  O_37
REMARK                            x       y       z     vdW  Elec       q    Type
REMARK                         _______ _______ _______ _____ _____    ______ ____
ROOT
ATOM      1  C   UNL     1     -44.450 -12.487 -30.191  0.00  0.00    +0.000 C 
ATOM      2  C   UNL     1     -45.137 -12.878 -28.918  0.00  0.00    +0.000 A 
ATOM      3  C   UNL     1     -44.759 -14.044 -28.231  0.00  0.00    +0.000 A 
ATOM      4  C   UNL     1     -43.730 -14.872 -28.702  0.00  0.00    +0.000 A 
ATOM      5  C   UNL     1     -43.359 -16.015 -27.995  0.00  0.00    +0.000 A 
ATOM      6  C   UNL     1     -44.037 -16.359 -26.811  0.00  0.00    +0.000 A 
ATOM      7  C   UNL     1     -45.081 -15.543 -26.333  0.00  0.00    +0.000 A 
ATOM      8  C   UNL     1     -45.436 -14.381 -27.037  0.00  0.00    +0.000 A 
ATOM      9  O   UNL     1     -46.415 -13.603 -26.586  0.00  0.00    +0.000 OA
ATOM     10  C   UNL     1     -46.799 -12.491 -27.202  0.00  0.00    +0.000 A 
ATOM     11  O   UNL     1     -47.756 -11.827 -26.722  0.00  0.00    +0.000 OA
ATOM     12  C   UNL     1     -46.156 -12.069 -28.382  0.00  0.00    +0.000 A 
ATOM     13  C   UNL     1     -45.761 -15.880 -25.031  0.00  0.00    +0.000 C 
ATOM     14  C   UNL     1     -45.675 -17.372 -24.718  0.00  0.00    +0.000 C 
ATOM     15  C   UNL     1     -44.220 -17.824 -24.771  0.00  0.00    +0.000 C 
ATOM     16  N   UNL     1     -43.661 -17.548 -26.089  0.00  0.00    +0.000 N 
ATOM     17  C   UNL     1     -42.728 -18.505 -26.677  0.00  0.00    +0.000 C 
ATOM     18  C   UNL     1     -41.646 -17.765 -27.456  0.00  0.00    +0.000 C 
ATOM     19  C   UNL     1     -42.288 -16.911 -28.549  0.00  0.00    +0.000 C 
ENDROOT
BRANCH  12  20
ATOM     20  C   UNL     1     -46.593 -10.848 -29.096  0.00  0.00    +0.000 C 
ATOM     21  C   UNL     1     -46.220  -9.584 -28.826  0.00  0.00    +0.000 C 
ATOM     22  C   UNL     1     -46.862  -8.485 -29.571  0.00  0.00    +0.000 C 
ATOM     23  O   UNL     1     -47.668  -8.725 -30.509  0.00  0.00    +0.000 OA
ATOM     24  N   UNL     1     -46.583  -7.130 -29.221  0.00  0.00    +0.000 N 
ATOM     25  C   UNL     1     -45.693  -6.803 -28.154  0.00  0.00    +0.000 C 
ATOM     26  O   UNL     1     -45.536  -5.594 -27.835  0.00  0.00    +0.000 OA
ATOM     27  N   UNL     1     -44.994  -7.845 -27.444  0.00  0.00    +0.000 N 
ATOM     28  C   UNL     1     -45.169  -9.221 -27.841  0.00  0.00    +0.000 C 
ATOM     29  O   UNL     1     -44.381 -10.100 -27.395  0.00  0.00    +0.000 OA
ATOM     30  H   UNL     1     -47.015  -6.404 -29.727  0.00  0.00    +0.000 HD
BRANCH  27  31
ATOM     31  C   UNL     1     -44.085  -7.511 -26.378  0.00  0.00    +0.000 A 
ATOM     32  C   UNL     1     -42.755  -7.180 -26.678  0.00  0.00    +0.000 A 
ATOM     33  C   UNL     1     -41.855  -6.867 -25.656  0.00  0.00    +0.000 A 
ATOM     34  C   UNL     1     -42.276  -6.882 -24.326  0.00  0.00    +0.000 A 
ATOM     35  C   UNL     1     -43.599  -7.206 -24.017  0.00  0.00    +0.000 A 
ATOM     36  C   UNL     1     -44.515  -7.520 -25.036  0.00  0.00    +0.000 A 
BRANCH  36  37
ATOM     37  O   UNL     1     -45.847  -7.829 -24.738  0.00  0.00    +0.000 OA
ATOM     38  C   UNL     1     -46.255  -9.105 -24.264  0.00  0.00    +0.000 C 
ENDBRANCH  36  37
ENDBRANCH  27  31
ENDBRANCH  12  20
TORSDOF 3
ENDMDL
MODEL 2
REMARK VINA RESULT:      -7.2      4.035      9.142
REMARK  Name = ZINC000002104886 ZINC02104886 PubChem-1759855
REMARK  3 active torsions:
REMARK  status: ('A' for Active; 'I' for Inactive)
REMARK    1  A    between atoms: C_12  and  C_20
REMARK    2  A    between atoms: N_27  and  C_31
REMARK    3  A    between atoms: C_36  and  O_37
REMARK                            x       y       z     vdW  Elec       q    Type
REMARK                         _______ _______ _______ _____ _____    ______ ____
ROOT
ATOM      1  C   UNL     1     -47.301  -8.370 -32.081  0.00  0.00    +0.000 C 
ATOM      2  C   UNL     1     -45.839  -8.130 -31.853  0.00  0.00    +0.000 A 
ATOM      3  C   UNL     1     -45.267  -6.881 -32.146  0.00  0.00    +0.000 A 
ATOM      4  C   UNL     1     -46.036  -5.822 -32.649  0.00  0.00    +0.000 A 
ATOM      5  C   UNL     1     -45.450  -4.585 -32.916  0.00  0.00    +0.000 A 
ATOM      6  C   UNL     1     -44.071  -4.400 -32.704  0.00  0.00    +0.000 A 
ATOM      7  C   UNL     1     -43.285  -5.459 -32.210  0.00  0.00    +0.000 A 
ATOM      8  C   UNL     1     -43.884  -6.697 -31.923  0.00  0.00    +0.000 A 
ATOM      9  O   UNL     1     -43.147  -7.697 -31.449  0.00  0.00    +0.000 OA
ATOM     10  C   UNL     1     -43.650  -8.891 -31.154  0.00  0.00    +0.000 A 
ATOM     11  O   UNL     1     -42.877  -9.794 -30.737  0.00  0.00    +0.000 OA
ATOM     12  C   UNL     1     -45.026  -9.148 -31.321  0.00  0.00    +0.000 A 
ATOM     13  C   UNL     1     -41.822  -5.238 -31.924  0.00  0.00    +0.000 C 
ATOM     14  C   UNL     1     -41.242  -4.113 -32.779  0.00  0.00    +0.000 C 
ATOM     15  C   UNL     1     -42.084  -2.854 -32.610  0.00  0.00    +0.000 C 
ATOM     16  N   UNL     1     -43.466  -3.125 -32.993  0.00  0.00    +0.000 N 
ATOM     17  C   UNL     1     -44.222  -2.090 -33.694  0.00  0.00    +0.000 C 
ATOM     18  C   UNL     1     -45.676  -2.108 -33.235  0.00  0.00    +0.000 C 
ATOM     19  C   UNL     1     -46.286  -3.483 -33.502  0.00  0.00    +0.000 C 
ENDROOT
BRANCH  12  20
ATOM     20  C   UNL     1     -45.596 -10.481 -31.025  0.00  0.00    +0.000 C 
ATOM     21  C   UNL     1     -46.054 -10.913 -29.837  0.00  0.00    +0.000 C 
ATOM     22  C   UNL     1     -46.470 -12.322 -29.710  0.00  0.00    +0.000 C 
ATOM     23  O   UNL     1     -46.492 -13.082 -30.716  0.00  0.00    +0.000 OA
ATOM     24  N   UNL     1     -46.839 -12.843 -28.435  0.00  0.00    +0.000 N 
ATOM     25  C   UNL     1     -46.814 -12.032 -27.261  0.00  0.00    +0.000 C 
ATOM     26  O   UNL     1     -47.077 -12.557 -26.147  0.00  0.00    +0.000 OA
ATOM     27  N   UNL     1     -46.477 -10.633 -27.351  0.00  0.00    +0.000 N 
ATOM     28  C   UNL     1     -46.203 -10.046 -28.639  0.00  0.00    +0.000 C 
ATOM     29  O   UNL     1     -46.154  -8.790 -28.752  0.00  0.00    +0.000 OA
ATOM     30  H   UNL     1     -47.118 -13.785 -28.363  0.00  0.00    +0.000 HD
BRANCH  27  31
ATOM     31  C   UNL     1     -46.467  -9.813 -26.167  0.00  0.00    +0.000 A 
ATOM     32  C   UNL     1     -47.642  -9.162 -25.763  0.00  0.00    +0.000 A 
ATOM     33  C   UNL     1     -47.648  -8.351 -24.626  0.00  0.00    +0.000 A 
ATOM     34  C   UNL     1     -46.480  -8.184 -23.882  0.00  0.00    +0.000 A 
ATOM     35  C   UNL     1     -45.306  -8.831 -24.272  0.00  0.00    +0.000 A 
ATOM     36  C   UNL     1     -45.287  -9.651 -25.414  0.00  0.00    +0.000 A 
BRANCH  36  37
ATOM     37  O   UNL     1     -44.120 -10.318 -25.803  0.00  0.00    +0.000 OA
ATOM     38  C   UNL     1     -43.017  -9.653 -26.406  0.00  0.00    +0.000 C 
ENDBRANCH  36  37
ENDBRANCH  27  31
ENDBRANCH  12  20
TORSDOF 3
ENDMDL
MODEL 3
REMARK VINA RESULT:      -7.1      5.939      7.895
REMARK  Name = ZINC000002104886 ZINC02104886 PubChem-1759855
REMARK  3 active torsions:
REMARK  status: ('A' for Active; 'I' for Inactive)
REMARK    1  A    between atoms: C_12  and  C_20
REMARK    2  A    between atoms: N_27  and  C_31
REMARK    3  A    between atoms: C_36  and  O_37
REMARK                            x       y       z     vdW  Elec       q    Type
REMARK                         _______ _______ _______ _____ _____    ______ ____
ROOT
ATOM      1  C   UNL     1     -46.607  -7.744 -28.519  0.00  0.00    +0.000 C 
ATOM      2  C   UNL     1     -45.116  -7.903 -28.519  0.00  0.00    +0.000 A 
ATOM      3  C   UNL     1     -44.378  -7.720 -27.337  0.00  0.00    +0.000 A 
ATOM      4  C   UNL     1     -45.004  -7.394 -26.125  0.00  0.00    +0.000 A 
ATOM      5  C   UNL     1     -44.253  -7.234 -24.961  0.00  0.00    +0.000 A 
ATOM      6  C   UNL     1     -42.854  -7.377 -25.002  0.00  0.00    +0.000 A 
ATOM      7  C   UNL     1     -42.212  -7.693 -26.215  0.00  0.00    +0.000 A 
ATOM      8  C   UNL     1     -42.974  -7.873 -27.381  0.00  0.00    +0.000 A 
ATOM      9  O   UNL     1     -42.374  -8.180 -28.526  0.00  0.00    +0.000 OA
ATOM     10  C   UNL     1     -43.034  -8.365 -29.664  0.00  0.00    +0.000 A 
ATOM     11  O   UNL     1     -42.385  -8.624 -30.712  0.00  0.00    +0.000 OA
ATOM     12  C   UNL     1     -44.439  -8.260 -29.700  0.00  0.00    +0.000 A 
ATOM     13  C   UNL     1     -40.721  -7.907 -26.241  0.00  0.00    +0.000 C 
ATOM     14  C   UNL     1     -40.020  -7.153 -25.113  0.00  0.00    +0.000 C 
ATOM     15  C   UNL     1     -40.657  -7.521 -23.778  0.00  0.00    +0.000 C 
ATOM     16  N   UNL     1     -42.080  -7.199 -23.799  0.00  0.00    +0.000 N 
ATOM     17  C   UNL     1     -42.706  -6.673 -22.589  0.00  0.00    +0.000 C 
ATOM     18  C   UNL     1     -44.123  -7.221 -22.457  0.00  0.00    +0.000 C 
ATOM     19  C   UNL     1     -44.943  -6.836 -23.687  0.00  0.00    +0.000 C 
ENDROOT
BRANCH  12  20
ATOM     20  C   UNL     1     -45.186  -8.435 -30.965  0.00  0.00    +0.000 C 
ATOM     21  C   UNL     1     -45.498  -7.475 -31.854  0.00  0.00    +0.000 C 
ATOM     22  C   UNL     1     -46.359  -7.824 -32.999  0.00  0.00    +0.000 C 
ATOM     23  O   UNL     1     -46.714  -9.017 -33.199  0.00  0.00    +0.000 OA
ATOM     24  N   UNL     1     -46.811  -6.804 -33.887  0.00  0.00    +0.000 N 
ATOM     25  C   UNL     1     -46.454  -5.436 -33.695  0.00  0.00    +0.000 C 
ATOM     26  O   UNL     1     -46.939  -4.562 -34.463  0.00  0.00    +0.000 OA
ATOM     27  N   UNL     1     -45.561  -5.059 -32.628  0.00  0.00    +0.000 N 
ATOM     28  C   UNL     1     -44.998  -6.077 -31.775  0.00  0.00    +0.000 C 
ATOM     29  O   UNL     1     -44.037  -5.786 -31.012  0.00  0.00    +0.000 OA
ATOM     30  H   UNL     1     -47.383  -7.049 -34.649  0.00  0.00    +0.000 HD
BRANCH  27  31
ATOM     31  C   UNL     1     -45.190  -3.680 -32.446  0.00  0.00    +0.000 A 
ATOM     32  C   UNL     1     -44.161  -3.129 -33.224  0.00  0.00    +0.000 A 
ATOM     33  C   UNL     1     -43.778  -1.797 -33.052  0.00  0.00    +0.000 A 
ATOM     34  C   UNL     1     -44.420  -1.003 -32.101  0.00  0.00    +0.000 A 
ATOM     35  C   UNL     1     -45.449  -1.540 -31.325  0.00  0.00    +0.000 A 
ATOM     36  C   UNL     1     -45.845  -2.878 -31.490  0.00  0.00    +0.000 A 
BRANCH  36  37
ATOM     37  O   UNL     1     -46.888  -3.420 -30.729  0.00  0.00    +0.000 OA
ATOM     38  C   UNL     1     -46.687  -3.990 -29.442  0.00  0.00    +0.000 C 
ENDBRANCH  36  37
ENDBRANCH  27  31
ENDBRANCH  12  20
TORSDOF 3
ENDMDL
