MODEL 1
REMARK VINA RESULT:      -6.6      0.000      0.000
REMARK  Name = ZINC000031807721
REMARK  2 active torsions:
REMARK  status: ('A' for Active; 'I' for Inactive)
REMARK    1  A    between atoms: C_7  and  C_24
REMARK    2  A    between atoms: C_27  and  O_28
REMARK                            x       y       z     vdW  Elec       q    Type
REMARK                         _______ _______ _______ _____ _____    ______ ____
ROOT
ATOM      1  C   UNL     1     -47.436  -4.485 -34.438  0.00  0.00    +0.000 C 
ATOM      2  C   UNL     1     -46.687  -5.630 -33.849  0.00  0.00    +0.000 A 
ATOM      3  N   UNL     1     -46.586  -6.833 -34.442  0.00  0.00    +0.000 NA
ATOM      4  N   UNL     1     -45.852  -7.606 -33.658  0.00  0.00    +0.000 N 
ATOM      5  C   UNL     1     -45.446  -6.905 -32.574  0.00  0.00    +0.000 A 
ATOM      6  C   UNL     1     -45.987  -5.622 -32.654  0.00  0.00    +0.000 A 
ATOM      7  C   UNL     1     -45.839  -4.419 -31.765  0.00  0.00    +0.000 C 
ATOM      8  S   UNL     1     -45.636  -4.794 -29.996  0.00  0.00    +0.000 S 
ATOM      9  C   UNL     1     -43.941  -5.382 -30.225  0.00  0.00    +0.000 C 
ATOM     10  C   UNL     1     -43.940  -6.849 -30.449  0.00  0.00    +0.000 C 
ATOM     11  O   UNL     1     -43.323  -7.577 -29.630  0.00  0.00    +0.000 OA
ATOM     12  N   UNL     1     -44.574  -7.461 -31.576  0.00  0.00    +0.000 N 
ATOM     13  H   UNL     1     -44.383  -8.420 -31.685  0.00  0.00    +0.000 HD
ATOM     14  C   UNL     1     -45.516  -8.957 -34.002  0.00  0.00    +0.000 A 
ATOM     15  N   UNL     1     -45.212  -9.280 -35.295  0.00  0.00    +0.000 NA
ATOM     16  C   UNL     1     -44.916 -10.566 -35.664  0.00  0.00    +0.000 A 
ATOM     17  N   UNL     1     -44.929 -11.573 -34.739  0.00  0.00    +0.000 NA
ATOM     18  C   UNL     1     -45.243 -11.259 -33.460  0.00  0.00    +0.000 A 
ATOM     19  N   UNL     1     -45.364 -12.111 -32.435  0.00  0.00    +0.000 N 
ATOM     20  C   UNL     1     -45.752 -11.294 -31.418  0.00  0.00    +0.000 A 
ATOM     21  N   UNL     1     -45.878  -9.987 -31.778  0.00  0.00    +0.000 NA
ATOM     22  C   UNL     1     -45.537  -9.999 -33.074  0.00  0.00    +0.000 A 
ATOM     23  H   UNL     1     -45.211 -13.083 -32.420  0.00  0.00    +0.000 HD
ENDROOT
BRANCH   7  24
ATOM     24  C   UNL     1     -44.888  -3.372 -32.276  0.00  0.00    +0.000 A 
ATOM     25  C   UNL     1     -44.950  -2.080 -31.744  0.00  0.00    +0.000 A 
ATOM     26  C   UNL     1     -44.071  -1.090 -32.193  0.00  0.00    +0.000 A 
ATOM     27  C   UNL     1     -43.123  -1.388 -33.176  0.00  0.00    +0.000 A 
ATOM     28  C   UNL     1     -43.052  -2.678 -33.709  0.00  0.00    +0.000 A 
ATOM     29  C   UNL     1     -43.931  -3.668 -33.261  0.00  0.00    +0.000 A 
BRANCH  27  30
ATOM     30  O   UNL     1     -42.251  -0.405 -33.621  0.00  0.00    +0.000 OA
ATOM     31  H   UNL     1     -42.578   0.325 -34.110  0.00  0.00    +0.000 HD
ENDBRANCH  27  30
ENDBRANCH   7  24
TORSDOF 2
ENDMDL
MODEL 2
REMARK VINA RESULT:      -6.5      2.568      3.094
REMARK  Name = ZINC000031807721
REMARK  2 active torsions:
REMARK  status: ('A' for Active; 'I' for Inactive)
REMARK    1  A    between atoms: C_7  and  C_24
REMARK    2  A    between atoms: C_27  and  O_28
REMARK                            x       y       z     vdW  Elec       q    Type
REMARK                         _______ _______ _______ _____ _____    ______ ____
ROOT
ATOM      1  C   UNL     1     -43.164  -5.935 -35.036  0.00  0.00    +0.000 C 
ATOM      2  C   UNL     1     -43.908  -6.342 -33.812  0.00  0.00    +0.000 A 
ATOM      3  N   UNL     1     -43.724  -7.521 -33.191  0.00  0.00    +0.000 NA
ATOM      4  N   UNL     1     -44.533  -7.551 -32.143  0.00  0.00    +0.000 N 
ATOM      5  C   UNL     1     -45.217  -6.387 -32.059  0.00  0.00    +0.000 A 
ATOM      6  C   UNL     1     -44.851  -5.584 -33.139  0.00  0.00    +0.000 A 
ATOM      7  C   UNL     1     -45.253  -4.188 -33.526  0.00  0.00    +0.000 C 
ATOM      8  S   UNL     1     -46.958  -3.731 -33.085  0.00  0.00    +0.000 S 
ATOM      9  C   UNL     1     -46.562  -3.602 -31.325  0.00  0.00    +0.000 C 
ATOM     10  C   UNL     1     -46.825  -4.897 -30.651  0.00  0.00    +0.000 C 
ATOM     11  O   UNL     1     -47.677  -4.926 -29.726  0.00  0.00    +0.000 OA
ATOM     12  N   UNL     1     -46.123  -6.099 -30.981  0.00  0.00    +0.000 N 
ATOM     13  H   UNL     1     -46.288  -6.853 -30.370  0.00  0.00    +0.000 HD
ATOM     14  C   UNL     1     -44.574  -8.659 -31.233  0.00  0.00    +0.000 A 
ATOM     15  N   UNL     1     -43.420  -9.298 -30.878  0.00  0.00    +0.000 NA
ATOM     16  C   UNL     1     -43.427 -10.378 -30.034  0.00  0.00    +0.000 A 
ATOM     17  N   UNL     1     -44.605 -10.857 -29.531  0.00  0.00    +0.000 NA
ATOM     18  C   UNL     1     -45.752 -10.234 -29.892  0.00  0.00    +0.000 A 
ATOM     19  N   UNL     1     -46.996 -10.592 -29.551  0.00  0.00    +0.000 N 
ATOM     20  C   UNL     1     -47.756  -9.686 -30.225  0.00  0.00    +0.000 A 
ATOM     21  N   UNL     1     -47.033  -8.800 -30.963  0.00  0.00    +0.000 NA
ATOM     22  C   UNL     1     -45.769  -9.169 -30.720  0.00  0.00    +0.000 A 
ATOM     23  H   UNL     1     -47.287 -11.324 -28.961  0.00  0.00    +0.000 HD
ENDROOT
BRANCH   7  24
ATOM     24  C   UNL     1     -44.236  -3.128 -33.199  0.00  0.00    +0.000 A 
ATOM     25  C   UNL     1     -44.474  -1.811 -33.605  0.00  0.00    +0.000 A 
ATOM     26  C   UNL     1     -43.552  -0.804 -33.306  0.00  0.00    +0.000 A 
ATOM     27  C   UNL     1     -42.388  -1.109 -32.597  0.00  0.00    +0.000 A 
ATOM     28  C   UNL     1     -42.145  -2.422 -32.184  0.00  0.00    +0.000 A 
ATOM     29  C   UNL     1     -43.066  -3.430 -32.483  0.00  0.00    +0.000 A 
BRANCH  27  30
ATOM     30  O   UNL     1     -41.472  -0.109 -32.301  0.00  0.00    +0.000 OA
ATOM     31  H   UNL     1     -40.714  -0.305 -31.787  0.00  0.00    +0.000 HD
ENDBRANCH  27  30
ENDBRANCH   7  24
TORSDOF 2
ENDMDL
MODEL 3
REMARK VINA RESULT:      -6.5      4.057      7.327
REMARK  Name = ZINC000031807721
REMARK  2 active torsions:
REMARK  status: ('A' for Active; 'I' for Inactive)
REMARK    1  A    between atoms: C_7  and  C_24
REMARK    2  A    between atoms: C_27  and  O_28
REMARK                            x       y       z     vdW  Elec       q    Type
REMARK                         _______ _______ _______ _____ _____    ______ ____
ROOT
ATOM      1  C   UNL     1     -42.471  -6.783 -27.556  0.00  0.00    +0.000 C 
ATOM      2  C   UNL     1     -42.990  -6.110 -28.779  0.00  0.00    +0.000 A 
ATOM      3  N   UNL     1     -42.208  -5.738 -29.808  0.00  0.00    +0.000 NA
ATOM      4  N   UNL     1     -42.987  -5.183 -30.723  0.00  0.00    +0.000 N 
ATOM      5  C   UNL     1     -44.276  -5.221 -30.310  0.00  0.00    +0.000 A 
ATOM      6  C   UNL     1     -44.313  -5.800 -29.042  0.00  0.00    +0.000 A 
ATOM      7  C   UNL     1     -45.461  -6.133 -28.131  0.00  0.00    +0.000 C 
ATOM      8  S   UNL     1     -46.875  -4.992 -28.230  0.00  0.00    +0.000 S 
ATOM      9  C   UNL     1     -47.392  -5.633 -29.841  0.00  0.00    +0.000 C 
ATOM     10  C   UNL     1     -46.777  -4.831 -30.927  0.00  0.00    +0.000 C 
ATOM     11  O   UNL     1     -47.537  -4.223 -31.723  0.00  0.00    +0.000 OA
ATOM     12  N   UNL     1     -45.362  -4.754 -31.127  0.00  0.00    +0.000 N 
ATOM     13  H   UNL     1     -45.088  -4.307 -31.960  0.00  0.00    +0.000 HD
ATOM     14  C   UNL     1     -42.483  -4.697 -31.974  0.00  0.00    +0.000 A 
ATOM     15  N   UNL     1     -41.506  -5.388 -32.634  0.00  0.00    +0.000 NA
ATOM     16  C   UNL     1     -40.980  -4.936 -33.817  0.00  0.00    +0.000 A 
ATOM     17  N   UNL     1     -41.417  -3.762 -34.366  0.00  0.00    +0.000 NA
ATOM     18  C   UNL     1     -42.375  -3.068 -33.707  0.00  0.00    +0.000 A 
ATOM     19  N   UNL     1     -42.882  -1.880 -34.056  0.00  0.00    +0.000 N 
ATOM     20  C   UNL     1     -43.742  -1.616 -33.034  0.00  0.00    +0.000 A 
ATOM     21  N   UNL     1     -43.776  -2.586 -32.078  0.00  0.00    +0.000 NA
ATOM     22  C   UNL     1     -42.908  -3.494 -32.542  0.00  0.00    +0.000 A 
ATOM     23  H   UNL     1     -42.685  -1.334 -34.851  0.00  0.00    +0.000 HD
ENDROOT
BRANCH   7  24
ATOM     24  C   UNL     1     -45.853  -7.586 -28.119  0.00  0.00    +0.000 A 
ATOM     25  C   UNL     1     -46.624  -8.073 -27.058  0.00  0.00    +0.000 A 
ATOM     26  C   UNL     1     -47.012  -9.415 -27.027  0.00  0.00    +0.000 A 
ATOM     27  C   UNL     1     -46.631 -10.278 -28.058  0.00  0.00    +0.000 A 
ATOM     28  C   UNL     1     -45.865  -9.798 -29.123  0.00  0.00    +0.000 A 
ATOM     29  C   UNL     1     -45.476  -8.456 -29.155  0.00  0.00    +0.000 A 
BRANCH  27  30
ATOM     30  O   UNL     1     -47.016 -11.611 -28.025  0.00  0.00    +0.000 OA
ATOM     31  H   UNL     1     -47.665 -11.897 -27.413  0.00  0.00    +0.000 HD
ENDBRANCH  27  30
ENDBRANCH   7  24
TORSDOF 2
ENDMDL
