MODEL 1
REMARK VINA RESULT:      -7.5      0.000      0.000
REMARK  Name = ZINC000096114995 ZINC96114995 PubChem-97424600
REMARK  4 active torsions:
REMARK  status: ('A' for Active; 'I' for Inactive)
REMARK    1  A    between atoms: C_1  and  C_23
REMARK    2  A    between atoms: C_13  and  C_28
REMARK    3  A    between atoms: C_15  and  O_18
REMARK    4  A    between atoms: C_16  and  O_17
REMARK                            x       y       z     vdW  Elec       q    Type
REMARK                         _______ _______ _______ _____ _____    ______ ____
ROOT
ATOM      1  C   UNL     1     -46.699  -9.064 -28.139  0.00  0.00    +0.000 C 
ATOM      2  C   UNL     1     -46.149 -10.483 -28.311  0.00  0.00    +0.000 C 
ATOM      3  C   UNL     1     -46.674 -11.127 -29.546  0.00  0.00    +0.000 C 
ATOM      4  O   UNL     1     -46.930 -12.359 -29.556  0.00  0.00    +0.000 OA
ATOM      5  O   UNL     1     -46.844 -10.369 -30.699  0.00  0.00    +0.000 OA
ATOM      6  C   UNL     1     -46.823  -8.971 -30.672  0.00  0.00    +0.000 A 
ATOM      7  C   UNL     1     -46.773  -8.270 -29.445  0.00  0.00    +0.000 A 
ATOM      8  C   UNL     1     -46.919  -6.861 -29.460  0.00  0.00    +0.000 A 
ATOM      9  C   UNL     1     -46.987  -6.161 -30.692  0.00  0.00    +0.000 A 
ATOM     10  C   UNL     1     -47.100  -4.756 -30.647  0.00  0.00    +0.000 A 
ATOM     11  O   UNL     1     -47.155  -4.061 -31.697  0.00  0.00    +0.000 OA
ATOM     12  C   UNL     1     -47.161  -4.111 -29.418  0.00  0.00    +0.000 A 
ATOM     13  C   UNL     1     -47.109  -4.863 -28.243  0.00  0.00    +0.000 A 
ATOM     14  O   UNL     1     -46.995  -6.187 -28.313  0.00  0.00    +0.000 OA
ATOM     15  C   UNL     1     -46.955  -6.883 -31.904  0.00  0.00    +0.000 A 
ATOM     16  C   UNL     1     -46.891  -8.278 -31.884  0.00  0.00    +0.000 A 
ENDROOT
BRANCH   1  19
ATOM     17  C   UNL     1     -47.448  -8.711 -25.031  0.00  0.00    +0.000 C 
ATOM     18  C   UNL     1     -46.220  -8.225 -25.727  0.00  0.00    +0.000 A 
ATOM     19  C   UNL     1     -45.896  -8.399 -27.058  0.00  0.00    +0.000 A 
ATOM     20  C   UNL     1     -44.692  -7.737 -27.239  0.00  0.00    +0.000 A 
ATOM     21  N   UNL     1     -44.316  -7.214 -26.052  0.00  0.00    +0.000 NA
ATOM     22  N   UNL     1     -45.238  -7.514 -25.151  0.00  0.00    +0.000 N 
ATOM     23  C   UNL     1     -45.167  -7.105 -23.759  0.00  0.00    +0.000 C 
ENDBRANCH   1  19
BRANCH  13  24
ATOM     24  C   UNL     1     -47.178  -4.204 -26.922  0.00  0.00    +0.000 A 
ATOM     25  C   UNL     1     -47.175  -4.954 -25.735  0.00  0.00    +0.000 A 
ATOM     26  C   UNL     1     -47.244  -4.316 -24.493  0.00  0.00    +0.000 A 
ATOM     27  C   UNL     1     -47.316  -2.923 -24.427  0.00  0.00    +0.000 A 
ATOM     28  C   UNL     1     -47.319  -2.167 -25.602  0.00  0.00    +0.000 A 
ATOM     29  C   UNL     1     -47.250  -2.805 -26.844  0.00  0.00    +0.000 A 
ENDBRANCH  13  24
BRANCH  16  30
ATOM     30  O   UNL     1     -46.902  -8.985 -33.081  0.00  0.00    +0.000 OA
ATOM     31  H   UNL     1     -47.335  -8.628 -33.832  0.00  0.00    +0.000 HD
ENDBRANCH  16  30
BRANCH  15  32
ATOM     32  O   UNL     1     -47.005  -6.234 -33.134  0.00  0.00    +0.000 OA
ATOM     33  H   UNL     1     -46.268  -6.266 -33.711  0.00  0.00    +0.000 HD
ENDBRANCH  15  32
TORSDOF 4
ENDMDL
MODEL 2
REMARK VINA RESULT:      -7.3      1.200      1.798
REMARK  Name = ZINC000096114995 ZINC96114995 PubChem-97424600
REMARK  4 active torsions:
REMARK  status: ('A' for Active; 'I' for Inactive)
REMARK    1  A    between atoms: C_1  and  C_23
REMARK    2  A    between atoms: C_13  and  C_28
REMARK    3  A    between atoms: C_15  and  O_18
REMARK    4  A    between atoms: C_16  and  O_17
REMARK                            x       y       z     vdW  Elec       q    Type
REMARK                         _______ _______ _______ _____ _____    ______ ____
ROOT
ATOM      1  C   UNL     1     -46.976  -9.500 -26.648  0.00  0.00    +0.000 C 
ATOM      2  C   UNL     1     -46.602 -10.971 -26.445  0.00  0.00    +0.000 C 
ATOM      3  C   UNL     1     -46.980 -11.800 -27.621  0.00  0.00    +0.000 C 
ATOM      4  O   UNL     1     -47.395 -12.976 -27.458  0.00  0.00    +0.000 OA
ATOM      5  O   UNL     1     -46.836 -11.281 -28.904  0.00  0.00    +0.000 OA
ATOM      6  C   UNL     1     -46.631  -9.916 -29.128  0.00  0.00    +0.000 A 
ATOM      7  C   UNL     1     -46.706  -8.987 -28.065  0.00  0.00    +0.000 A 
ATOM      8  C   UNL     1     -46.655  -7.603 -28.365  0.00  0.00    +0.000 A 
ATOM      9  C   UNL     1     -46.405  -7.167 -29.693  0.00  0.00    +0.000 A 
ATOM     10  C   UNL     1     -46.332  -5.779 -29.928  0.00  0.00    +0.000 A 
ATOM     11  O   UNL     1     -46.103  -5.313 -31.076  0.00  0.00    +0.000 OA
ATOM     12  C   UNL     1     -46.524  -4.893 -28.875  0.00  0.00    +0.000 A 
ATOM     13  C   UNL     1     -46.787  -5.390 -27.596  0.00  0.00    +0.000 A 
ATOM     14  O   UNL     1     -46.842  -6.704 -27.399  0.00  0.00    +0.000 OA
ATOM     15  C   UNL     1     -46.254  -8.122 -30.720  0.00  0.00    +0.000 A 
ATOM     16  C   UNL     1     -46.385  -9.483 -30.434  0.00  0.00    +0.000 A 
ENDROOT
BRANCH   1  19
ATOM     17  C   UNL     1     -43.869  -8.703 -26.415  0.00  0.00    +0.000 C 
ATOM     18  C   UNL     1     -44.961  -8.382 -25.449  0.00  0.00    +0.000 A 
ATOM     19  C   UNL     1     -46.297  -8.709 -25.567  0.00  0.00    +0.000 A 
ATOM     20  C   UNL     1     -46.900  -8.239 -24.411  0.00  0.00    +0.000 A 
ATOM     21  N   UNL     1     -45.955  -7.640 -23.656  0.00  0.00    +0.000 NA
ATOM     22  N   UNL     1     -44.796  -7.728 -24.288  0.00  0.00    +0.000 N 
ATOM     23  C   UNL     1     -43.550  -7.196 -23.764  0.00  0.00    +0.000 C 
ENDBRANCH   1  19
BRANCH  13  24
ATOM     24  C   UNL     1     -47.001  -4.470 -26.460  0.00  0.00    +0.000 A 
ATOM     25  C   UNL     1     -47.012  -4.942 -25.137  0.00  0.00    +0.000 A 
ATOM     26  C   UNL     1     -47.220  -4.059 -24.072  0.00  0.00    +0.000 A 
ATOM     27  C   UNL     1     -47.416  -2.699 -24.320  0.00  0.00    +0.000 A 
ATOM     28  C   UNL     1     -47.405  -2.220 -25.633  0.00  0.00    +0.000 A 
ATOM     29  C   UNL     1     -47.198  -3.102 -26.697  0.00  0.00    +0.000 A 
ENDBRANCH  13  24
BRANCH  16  30
ATOM     30  O   UNL     1     -46.278 -10.416 -31.460  0.00  0.00    +0.000 OA
ATOM     31  H   UNL     1     -45.561 -10.369 -32.062  0.00  0.00    +0.000 HD
ENDBRANCH  16  30
BRANCH  15  32
ATOM     32  O   UNL     1     -45.995  -7.737 -32.032  0.00  0.00    +0.000 OA
ATOM     33  H   UNL     1     -45.618  -6.897 -32.207  0.00  0.00    +0.000 HD
ENDBRANCH  15  32
TORSDOF 4
ENDMDL
MODEL 3
REMARK VINA RESULT:      -7.2      8.418     10.976
REMARK  Name = ZINC000096114995 ZINC96114995 PubChem-97424600
REMARK  4 active torsions:
REMARK  status: ('A' for Active; 'I' for Inactive)
REMARK    1  A    between atoms: C_1  and  C_23
REMARK    2  A    between atoms: C_13  and  C_28
REMARK    3  A    between atoms: C_15  and  O_18
REMARK    4  A    between atoms: C_16  and  O_17
REMARK                            x       y       z     vdW  Elec       q    Type
REMARK                         _______ _______ _______ _____ _____    ______ ____
ROOT
ATOM      1  C   UNL     1     -44.880 -17.931 -23.605  0.00  0.00    +0.000 C 
ATOM      2  C   UNL     1     -44.131 -18.988 -24.421  0.00  0.00    +0.000 C 
ATOM      3  C   UNL     1     -44.515 -18.943 -25.858  0.00  0.00    +0.000 C 
ATOM      4  O   UNL     1     -44.595 -20.007 -26.524  0.00  0.00    +0.000 OA
ATOM      5  O   UNL     1     -44.747 -17.716 -26.471  0.00  0.00    +0.000 OA
ATOM      6  C   UNL     1     -44.923 -16.543 -25.730  0.00  0.00    +0.000 A 
ATOM      7  C   UNL     1     -45.016 -16.584 -24.320  0.00  0.00    +0.000 A 
ATOM      8  C   UNL     1     -45.357 -15.397 -23.626  0.00  0.00    +0.000 A 
ATOM      9  C   UNL     1     -45.478 -14.168 -24.326  0.00  0.00    +0.000 A 
ATOM     10  C   UNL     1     -45.788 -13.012 -23.580  0.00  0.00    +0.000 A 
ATOM     11  O   UNL     1     -45.900 -11.882 -24.125  0.00  0.00    +0.000 OA
ATOM     12  C   UNL     1     -45.983 -13.112 -22.208  0.00  0.00    +0.000 A 
ATOM     13  C   UNL     1     -45.870 -14.357 -21.585  0.00  0.00    +0.000 A 
ATOM     14  O   UNL     1     -45.568 -15.431 -22.311  0.00  0.00    +0.000 OA
ATOM     15  C   UNL     1     -45.300 -14.145 -25.725  0.00  0.00    +0.000 A 
ATOM     16  C   UNL     1     -45.042 -15.331 -26.416  0.00  0.00    +0.000 A 
ENDROOT
BRANCH   1  19
ATOM     17  C   UNL     1     -46.130 -18.624 -20.725  0.00  0.00    +0.000 C 
ATOM     18  C   UNL     1     -44.754 -18.125 -21.017  0.00  0.00    +0.000 A 
ATOM     19  C   UNL     1     -44.218 -17.849 -22.259  0.00  0.00    +0.000 A 
ATOM     20  C   UNL     1     -42.939 -17.374 -22.017  0.00  0.00    +0.000 A 
ATOM     21  N   UNL     1     -42.729 -17.391 -20.683  0.00  0.00    +0.000 NA
ATOM     22  N   UNL     1     -43.822 -17.846 -20.092  0.00  0.00    +0.000 N 
ATOM     23  C   UNL     1     -43.959 -17.994 -18.654  0.00  0.00    +0.000 C 
ENDBRANCH   1  19
BRANCH  13  24
ATOM     24  C   UNL     1     -46.078 -14.493 -20.129  0.00  0.00    +0.000 A 
ATOM     25  C   UNL     1     -47.371 -14.582 -19.586  0.00  0.00    +0.000 A 
ATOM     26  C   UNL     1     -47.552 -14.707 -18.206  0.00  0.00    +0.000 A 
ATOM     27  C   UNL     1     -46.445 -14.745 -17.356  0.00  0.00    +0.000 A 
ATOM     28  C   UNL     1     -45.155 -14.659 -17.886  0.00  0.00    +0.000 A 
ATOM     29  C   UNL     1     -44.973 -14.534 -19.266  0.00  0.00    +0.000 A 
ENDBRANCH  13  24
BRANCH  16  30
ATOM     30  O   UNL     1     -44.911 -15.308 -27.800  0.00  0.00    +0.000 OA
ATOM     31  H   UNL     1     -44.085 -15.509 -28.196  0.00  0.00    +0.000 HD
ENDBRANCH  16  30
BRANCH  15  32
ATOM     32  O   UNL     1     -45.396 -12.959 -26.447  0.00  0.00    +0.000 OA
ATOM     33  H   UNL     1     -45.826 -12.216 -26.071  0.00  0.00    +0.000 HD
ENDBRANCH  15  32
TORSDOF 4
ENDMDL
