MODEL 1
REMARK VINA RESULT:      -6.2      0.000      0.000
REMARK  Name = ZINC000004878449 PubChem-12923698
REMARK  9 active torsions:
REMARK  status: ('A' for Active; 'I' for Inactive)
REMARK    1  A    between atoms: N_17  and  C_20
REMARK    2  A    between atoms: C_20  and  C_21
REMARK    3  A    between atoms: C_21  and  O_22
REMARK    4  A    between atoms: C_21  and  C_24
REMARK    5  A    between atoms: C_24  and  O_25
REMARK    6  A    between atoms: C_24  and  C_27
REMARK    7  A    between atoms: C_27  and  O_28
REMARK    8  A    between atoms: C_27  and  C_30
REMARK    9  A    between atoms: C_30  and  O_31
REMARK                            x       y       z     vdW  Elec       q    Type
REMARK                         _______ _______ _______ _____ _____    ______ ____
ROOT
ATOM      1  C   UNL     1     -46.062 -16.597 -18.770  0.00  0.00    +0.000 C 
ATOM      2  C   UNL     1     -45.875 -16.642 -20.249  0.00  0.00    +0.000 A 
ATOM      3  C   UNL     1     -45.588 -17.845 -20.918  0.00  0.00    +0.000 A 
ATOM      4  C   UNL     1     -45.419 -17.846 -22.304  0.00  0.00    +0.000 A 
ATOM      5  C   UNL     1     -45.528 -16.660 -23.051  0.00  0.00    +0.000 A 
ATOM      6  C   UNL     1     -45.818 -15.453 -22.363  0.00  0.00    +0.000 A 
ATOM      7  C   UNL     1     -45.987 -15.455 -20.977  0.00  0.00    +0.000 A 
ATOM      8  C   UNL     1     -45.939 -14.253 -23.059  0.00  0.00    +0.000 A 
ATOM      9  C   UNL     1     -45.775 -14.240 -24.438  0.00  0.00    +0.000 A 
ATOM     10  C   UNL     1     -45.882 -13.082 -25.211  0.00  0.00    +0.000 A 
ATOM     11  O   UNL     1     -46.136 -11.970 -24.677  0.00  0.00    +0.000 OA
ATOM     12  N   UNL     1     -45.708 -13.157 -26.557  0.00  0.00    +0.000 N 
ATOM     13  C   UNL     1     -45.433 -14.331 -27.189  0.00  0.00    +0.000 A 
ATOM     14  O   UNL     1     -45.282 -14.347 -28.437  0.00  0.00    +0.000 OA
ATOM     15  N   UNL     1     -45.318 -15.487 -26.483  0.00  0.00    +0.000 NA
ATOM     16  C   UNL     1     -45.473 -15.506 -25.132  0.00  0.00    +0.000 A 
ATOM     17  N   UNL     1     -45.358 -16.666 -24.416  0.00  0.00    +0.000 N 
ATOM     18  C   UNL     1     -45.459 -19.136 -20.181  0.00  0.00    +0.000 C 
ATOM     19  H   UNL     1     -45.786 -12.335 -27.094  0.00  0.00    +0.000 HD
ENDROOT
BRANCH  17  20
ATOM     20  C   UNL     1     -45.041 -17.912 -25.122  0.00  0.00    +0.000 C 
BRANCH  20  21
ATOM     21  C   UNL     1     -43.535 -18.071 -25.281  0.00  0.00    +0.000 C 
BRANCH  21  22
ATOM     22  O   UNL     1     -42.907 -16.826 -25.183  0.00  0.00    +0.000 OA
ATOM     23  H   UNL     1     -43.273 -16.226 -25.852  0.00  0.00    +0.000 HD
ENDBRANCH  21  22
BRANCH  21  24
ATOM     24  C   UNL     1     -43.221 -18.737 -26.623  0.00  0.00    +0.000 C 
BRANCH  24  25
ATOM     25  O   UNL     1     -44.382 -19.222 -27.234  0.00  0.00    +0.000 OA
ATOM     26  H   UNL     1     -45.138 -19.091 -26.641  0.00  0.00    +0.000 HD
ENDBRANCH  24  25
BRANCH  24  27
ATOM     27  C   UNL     1     -42.439 -17.835 -27.581  0.00  0.00    +0.000 C 
BRANCH  27  28
ATOM     28  O   UNL     1     -43.257 -16.801 -28.043  0.00  0.00    +0.000 OA
ATOM     29  H   UNL     1     -43.397 -16.903 -28.997  0.00  0.00    +0.000 HD
ENDBRANCH  27  28
BRANCH  27  30
ATOM     30  C   UNL     1     -41.847 -18.603 -28.753  0.00  0.00    +0.000 C 
BRANCH  30  31
ATOM     31  O   UNL     1     -42.506 -18.251 -29.931  0.00  0.00    +0.000 OA
ATOM     32  H   UNL     1     -43.280 -17.706 -29.719  0.00  0.00    +0.000 HD
ENDBRANCH  30  31
ENDBRANCH  27  30
ENDBRANCH  24  27
ENDBRANCH  21  24
ENDBRANCH  20  21
ENDBRANCH  17  20
TORSDOF 9
ENDMDL
MODEL 2
REMARK VINA RESULT:      -6.0      4.029      6.667
REMARK  Name = ZINC000004878449 PubChem-12923698
REMARK  9 active torsions:
REMARK  status: ('A' for Active; 'I' for Inactive)
REMARK    1  A    between atoms: N_17  and  C_20
REMARK    2  A    between atoms: C_20  and  C_21
REMARK    3  A    between atoms: C_21  and  O_22
REMARK    4  A    between atoms: C_21  and  C_24
REMARK    5  A    between atoms: C_24  and  O_25
REMARK    6  A    between atoms: C_24  and  C_27
REMARK    7  A    between atoms: C_27  and  O_28
REMARK    8  A    between atoms: C_27  and  C_30
REMARK    9  A    between atoms: C_30  and  O_31
REMARK                            x       y       z     vdW  Elec       q    Type
REMARK                         _______ _______ _______ _____ _____    ______ ____
ROOT
ATOM      1  C   UNL     1     -47.548 -13.380 -20.183  0.00  0.00    +0.000 C 
ATOM      2  C   UNL     1     -46.862 -14.703 -20.236  0.00  0.00    +0.000 A 
ATOM      3  C   UNL     1     -46.831 -15.560 -19.122  0.00  0.00    +0.000 A 
ATOM      4  C   UNL     1     -46.176 -16.790 -19.210  0.00  0.00    +0.000 A 
ATOM      5  C   UNL     1     -45.542 -17.194 -20.398  0.00  0.00    +0.000 A 
ATOM      6  C   UNL     1     -45.583 -16.319 -21.516  0.00  0.00    +0.000 A 
ATOM      7  C   UNL     1     -46.237 -15.089 -21.424  0.00  0.00    +0.000 A 
ATOM      8  C   UNL     1     -44.972 -16.674 -22.716  0.00  0.00    +0.000 A 
ATOM      9  C   UNL     1     -44.320 -17.896 -22.819  0.00  0.00    +0.000 A 
ATOM     10  C   UNL     1     -43.685 -18.330 -23.983  0.00  0.00    +0.000 A 
ATOM     11  O   UNL     1     -43.674 -17.612 -25.019  0.00  0.00    +0.000 OA
ATOM     12  N   UNL     1     -43.070 -19.542 -24.000  0.00  0.00    +0.000 N 
ATOM     13  C   UNL     1     -43.051 -20.360 -22.912  0.00  0.00    +0.000 A 
ATOM     14  O   UNL     1     -42.468 -21.473 -22.979  0.00  0.00    +0.000 OA
ATOM     15  N   UNL     1     -43.653 -19.986 -21.753  0.00  0.00    +0.000 NA
ATOM     16  C   UNL     1     -44.290 -18.789 -21.645  0.00  0.00    +0.000 A 
ATOM     17  N   UNL     1     -44.897 -18.406 -20.480  0.00  0.00    +0.000 N 
ATOM     18  C   UNL     1     -47.484 -15.188 -17.833  0.00  0.00    +0.000 C 
ATOM     19  H   UNL     1     -42.625 -19.839 -24.827  0.00  0.00    +0.000 HD
ENDROOT
BRANCH  17  20
ATOM     20  C   UNL     1     -44.842 -19.300 -19.319  0.00  0.00    +0.000 C 
BRANCH  20  21
ATOM     21  C   UNL     1     -43.553 -19.089 -18.539  0.00  0.00    +0.000 C 
BRANCH  21  22
ATOM     22  O   UNL     1     -42.682 -18.268 -19.262  0.00  0.00    +0.000 OA
ATOM     23  H   UNL     1     -42.751 -17.357 -18.935  0.00  0.00    +0.000 HD
ENDBRANCH  21  22
BRANCH  21  24
ATOM     24  C   UNL     1     -42.901 -20.440 -18.233  0.00  0.00    +0.000 C 
BRANCH  24  25
ATOM     25  O   UNL     1     -43.836 -21.479 -18.290  0.00  0.00    +0.000 OA
ATOM     26  H   UNL     1     -44.711 -21.140 -18.047  0.00  0.00    +0.000 HD
ENDBRANCH  24  25
BRANCH  24  27
ATOM     27  C   UNL     1     -41.693 -20.747 -19.121  0.00  0.00    +0.000 C 
BRANCH  27  28
ATOM     28  O   UNL     1     -41.952 -21.866 -19.916  0.00  0.00    +0.000 OA
ATOM     29  H   UNL     1     -42.871 -22.148 -19.786  0.00  0.00    +0.000 HD
ENDBRANCH  27  28
BRANCH  27  30
ATOM     30  C   UNL     1     -40.417 -20.955 -18.319  0.00  0.00    +0.000 C 
BRANCH  30  31
ATOM     31  O   UNL     1     -40.407 -22.237 -17.769  0.00  0.00    +0.000 OA
ATOM     32  H   UNL     1     -41.316 -22.568 -17.701  0.00  0.00    +0.000 HD
ENDBRANCH  30  31
ENDBRANCH  27  30
ENDBRANCH  24  27
ENDBRANCH  21  24
ENDBRANCH  20  21
ENDBRANCH  17  20
TORSDOF 9
ENDMDL
MODEL 3
REMARK VINA RESULT:      -5.9      7.514     10.366
REMARK  Name = ZINC000004878449 PubChem-12923698
REMARK  9 active torsions:
REMARK  status: ('A' for Active; 'I' for Inactive)
REMARK    1  A    between atoms: N_17  and  C_20
REMARK    2  A    between atoms: C_20  and  C_21
REMARK    3  A    between atoms: C_21  and  O_22
REMARK    4  A    between atoms: C_21  and  C_24
REMARK    5  A    between atoms: C_24  and  O_25
REMARK    6  A    between atoms: C_24  and  C_27
REMARK    7  A    between atoms: C_27  and  O_28
REMARK    8  A    between atoms: C_27  and  C_30
REMARK    9  A    between atoms: C_30  and  O_31
REMARK                            x       y       z     vdW  Elec       q    Type
REMARK                         _______ _______ _______ _____ _____    ______ ____
ROOT
ATOM      1  C   UNL     1     -47.463  -2.833 -24.451  0.00  0.00    +0.000 C 
ATOM      2  C   UNL     1     -47.182  -3.983 -25.359  0.00  0.00    +0.000 A 
ATOM      3  C   UNL     1     -46.787  -5.235 -24.858  0.00  0.00    +0.000 A 
ATOM      4  C   UNL     1     -46.531  -6.287 -25.741  0.00  0.00    +0.000 A 
ATOM      5  C   UNL     1     -46.661  -6.117 -27.131  0.00  0.00    +0.000 A 
ATOM      6  C   UNL     1     -47.062  -4.848 -27.622  0.00  0.00    +0.000 A 
ATOM      7  C   UNL     1     -47.316  -3.798 -26.736  0.00  0.00    +0.000 A 
ATOM      8  C   UNL     1     -47.208  -4.631 -28.990  0.00  0.00    +0.000 A 
ATOM      9  C   UNL     1     -46.960  -5.668 -29.880  0.00  0.00    +0.000 A 
ATOM     10  C   UNL     1     -47.084  -5.537 -31.264  0.00  0.00    +0.000 A 
ATOM     11  O   UNL     1     -47.433  -4.442 -31.780  0.00  0.00    +0.000 OA
ATOM     12  N   UNL     1     -46.823  -6.604 -32.064  0.00  0.00    +0.000 N 
ATOM     13  C   UNL     1     -46.443  -7.811 -31.563  0.00  0.00    +0.000 A 
ATOM     14  O   UNL     1     -46.214  -8.767 -32.346  0.00  0.00    +0.000 OA
ATOM     15  N   UNL     1     -46.306  -7.992 -30.223  0.00  0.00    +0.000 NA
ATOM     16  C   UNL     1     -46.544  -6.980 -29.347  0.00  0.00    +0.000 A 
ATOM     17  N   UNL     1     -46.407  -7.156 -27.997  0.00  0.00    +0.000 N 
ATOM     18  C   UNL     1     -46.630  -5.477 -23.395  0.00  0.00    +0.000 C 
ATOM     19  H   UNL     1     -46.914  -6.501 -33.040  0.00  0.00    +0.000 HD
ENDROOT
BRANCH  17  20
ATOM     20  C   UNL     1     -45.976  -8.462 -27.488  0.00  0.00    +0.000 C 
BRANCH  20  21
ATOM     21  C   UNL     1     -47.161  -9.409 -27.365  0.00  0.00    +0.000 C 
BRANCH  21  22
ATOM     22  O   UNL     1     -47.753  -9.277 -26.106  0.00  0.00    +0.000 OA
ATOM     23  H   UNL     1     -47.271  -9.821 -25.463  0.00  0.00    +0.000 HD
ENDBRANCH  21  22
BRANCH  21  24
ATOM     24  C   UNL     1     -46.705 -10.850 -27.606  0.00  0.00    +0.000 C 
BRANCH  24  25
ATOM     25  O   UNL     1     -47.446 -11.752 -26.837  0.00  0.00    +0.000 OA
ATOM     26  H   UNL     1     -48.173 -12.109 -27.368  0.00  0.00    +0.000 HD
ENDBRANCH  24  25
BRANCH  24  27
ATOM     27  C   UNL     1     -46.719 -11.254 -29.082  0.00  0.00    +0.000 C 
BRANCH  27  28
ATOM     28  O   UNL     1     -47.510 -12.390 -29.262  0.00  0.00    +0.000 OA
ATOM     29  H   UNL     1     -47.003 -13.179 -29.014  0.00  0.00    +0.000 HD
ENDBRANCH  27  28
BRANCH  27  30
ATOM     30  C   UNL     1     -45.321 -11.492 -29.635  0.00  0.00    +0.000 C 
BRANCH  30  31
ATOM     31  O   UNL     1     -45.235 -10.995 -30.935  0.00  0.00    +0.000 OA
ATOM     32  H   UNL     1     -45.729 -11.573 -31.537  0.00  0.00    +0.000 HD
ENDBRANCH  30  31
ENDBRANCH  27  30
ENDBRANCH  24  27
ENDBRANCH  21  24
ENDBRANCH  20  21
ENDBRANCH  17  20
TORSDOF 9
ENDMDL
