MODEL 1
REMARK VINA RESULT:      -7.9      0.000      0.000
REMARK  Name = ZINC000019126373 ZINC19126373 PubChem-92555022
REMARK  3 active torsions:
REMARK  status: ('A' for Active; 'I' for Inactive)
REMARK    1  A    between atoms: C_1  and  C_14
REMARK    2  A    between atoms: C_7  and  C_19
REMARK    3  A    between atoms: C_23  and  C_25
REMARK                            x       y       z     vdW  Elec       q    Type
REMARK                         _______ _______ _______ _____ _____    ______ ____
ROOT
ATOM      1  C   UNL     1     -46.472  -8.490 -30.310  0.00  0.00    +0.000 C 
ATOM      2  O   UNL     1     -47.421  -9.263 -30.617  0.00  0.00    +0.000 OA
ATOM      3  N   UNL     1     -45.114  -8.934 -30.517  0.00  0.00    +0.000 N 
ATOM      4  C   UNL     1     -44.868 -10.236 -31.127  0.00  0.00    +0.000 C 
ATOM      5  C   UNL     1     -44.422 -10.031 -32.571  0.00  0.00    +0.000 C 
ATOM      6  C   UNL     1     -43.190  -9.123 -32.621  0.00  0.00    +0.000 C 
ATOM      7  C   UNL     1     -43.407  -7.796 -31.875  0.00  0.00    +0.000 C 
ATOM      8  C   UNL     1     -43.973  -8.020 -30.468  0.00  0.00    +0.000 C 
ENDROOT
BRANCH   1  14
ATOM      9  C   UNL     1     -47.396  -2.597 -25.950  0.00  0.00    +0.000 C 
ATOM     10  C   UNL     1     -47.300  -3.653 -26.992  0.00  0.00    +0.000 A 
ATOM     11  C   UNL     1     -46.799  -4.937 -26.771  0.00  0.00    +0.000 A 
ATOM     12  C   UNL     1     -46.919  -5.520 -28.014  0.00  0.00    +0.000 A 
ATOM     13  C   UNL     1     -46.581  -6.804 -28.434  0.00  0.00    +0.000 A 
ATOM     14  C   UNL     1     -46.804  -7.143 -29.786  0.00  0.00    +0.000 A 
ATOM     15  C   UNL     1     -47.373  -6.183 -30.659  0.00  0.00    +0.000 A 
ATOM     16  C   UNL     1     -47.706  -4.895 -30.207  0.00  0.00    +0.000 A 
ATOM     17  C   UNL     1     -47.458  -4.601 -28.870  0.00  0.00    +0.000 A 
ATOM     18  O   UNL     1     -47.684  -3.478 -28.242  0.00  0.00    +0.000 OA
ENDBRANCH   1  14
BRANCH   7  19
ATOM     19  C   UNL     1     -44.201  -6.794 -32.662  0.00  0.00    +0.000 A 
ATOM     20  C   UNL     1     -45.031  -7.185 -33.716  0.00  0.00    +0.000 A 
ATOM     21  C   UNL     1     -45.773  -6.209 -34.387  0.00  0.00    +0.000 A 
ATOM     22  N   UNL     1     -45.668  -4.910 -34.005  0.00  0.00    +0.000 NA
ATOM     23  C   UNL     1     -44.853  -4.536 -32.981  0.00  0.00    +0.000 A 
ATOM     24  N   UNL     1     -44.131  -5.482 -32.318  0.00  0.00    +0.000 NA
ATOM     25  N   UNL     1     -46.649  -6.558 -35.461  0.00  0.00    +0.000 N 
ATOM     26  C   UNL     1     -46.489  -7.769 -36.249  0.00  0.00    +0.000 C 
ATOM     27  H   UNL     1     -47.393  -5.951 -35.677  0.00  0.00    +0.000 HD
BRANCH  23  28
ATOM     28  C   UNL     1     -44.761  -3.120 -32.584  0.00  0.00    +0.000 A 
ATOM     29  C   UNL     1     -44.037  -2.204 -33.359  0.00  0.00    +0.000 A 
ATOM     30  C   UNL     1     -43.957  -0.867 -32.973  0.00  0.00    +0.000 A 
ATOM     31  C   UNL     1     -44.605  -0.454 -31.807  0.00  0.00    +0.000 A 
ATOM     32  N   UNL     1     -45.304  -1.350 -31.063  0.00  0.00    +0.000 NA
ATOM     33  C   UNL     1     -45.394  -2.659 -31.422  0.00  0.00    +0.000 A 
ENDBRANCH  23  28
ENDBRANCH   7  19
TORSDOF 3
ENDMDL
MODEL 2
REMARK VINA RESULT:      -7.6      2.607      5.611
REMARK  Name = ZINC000019126373 ZINC19126373 PubChem-92555022
REMARK  3 active torsions:
REMARK  status: ('A' for Active; 'I' for Inactive)
REMARK    1  A    between atoms: C_1  and  C_14
REMARK    2  A    between atoms: C_7  and  C_19
REMARK    3  A    between atoms: C_23  and  C_25
REMARK                            x       y       z     vdW  Elec       q    Type
REMARK                         _______ _______ _______ _____ _____    ______ ____
ROOT
ATOM      1  C   UNL     1     -43.542  -7.741 -30.717  0.00  0.00    +0.000 C 
ATOM      2  O   UNL     1     -42.879  -8.006 -29.677  0.00  0.00    +0.000 OA
ATOM      3  N   UNL     1     -44.700  -8.545 -31.033  0.00  0.00    +0.000 N 
ATOM      4  C   UNL     1     -45.111  -9.604 -30.117  0.00  0.00    +0.000 C 
ATOM      5  C   UNL     1     -46.343  -9.142 -29.346  0.00  0.00    +0.000 C 
ATOM      6  C   UNL     1     -47.459  -8.748 -30.319  0.00  0.00    +0.000 C 
ATOM      7  C   UNL     1     -46.993  -7.718 -31.360  0.00  0.00    +0.000 C 
ATOM      8  C   UNL     1     -45.684  -8.143 -32.036  0.00  0.00    +0.000 C 
ENDROOT
BRANCH   1  14
ATOM      9  C   UNL     1     -42.247  -0.929 -33.269  0.00  0.00    +0.000 C 
ATOM     10  C   UNL     1     -42.411  -2.372 -32.949  0.00  0.00    +0.000 A 
ATOM     11  C   UNL     1     -43.008  -2.860 -31.786  0.00  0.00    +0.000 A 
ATOM     12  C   UNL     1     -42.920  -4.224 -31.957  0.00  0.00    +0.000 A 
ATOM     13  C   UNL     1     -43.344  -5.258 -31.126  0.00  0.00    +0.000 A 
ATOM     14  C   UNL     1     -43.118  -6.586 -31.545  0.00  0.00    +0.000 A 
ATOM     15  C   UNL     1     -42.490  -6.824 -32.792  0.00  0.00    +0.000 A 
ATOM     16  C   UNL     1     -42.073  -5.761 -33.612  0.00  0.00    +0.000 A 
ATOM     17  C   UNL     1     -42.305  -4.469 -33.153  0.00  0.00    +0.000 A 
ATOM     18  O   UNL     1     -42.003  -3.343 -33.743  0.00  0.00    +0.000 OA
ENDBRANCH   1  14
BRANCH   7  19
ATOM     19  C   UNL     1     -46.937  -6.316 -30.827  0.00  0.00    +0.000 A 
ATOM     20  C   UNL     1     -46.873  -5.212 -31.680  0.00  0.00    +0.000 A 
ATOM     21  C   UNL     1     -46.860  -3.930 -31.125  0.00  0.00    +0.000 A 
ATOM     22  N   UNL     1     -46.904  -3.786 -29.775  0.00  0.00    +0.000 NA
ATOM     23  C   UNL     1     -46.961  -4.867 -28.949  0.00  0.00    +0.000 A 
ATOM     24  N   UNL     1     -46.980  -6.119 -29.483  0.00  0.00    +0.000 NA
ATOM     25  N   UNL     1     -46.812  -2.767 -31.954  0.00  0.00    +0.000 N 
ATOM     26  C   UNL     1     -46.291  -2.786 -33.311  0.00  0.00    +0.000 C 
ATOM     27  H   UNL     1     -47.146  -1.915 -31.590  0.00  0.00    +0.000 HD
BRANCH  23  28
ATOM     28  C   UNL     1     -47.012  -4.683 -27.488  0.00  0.00    +0.000 A 
ATOM     29  C   UNL     1     -47.374  -3.449 -26.933  0.00  0.00    +0.000 A 
ATOM     30  C   UNL     1     -47.418  -3.288 -25.548  0.00  0.00    +0.000 A 
ATOM     31  C   UNL     1     -47.097  -4.369 -24.725  0.00  0.00    +0.000 A 
ATOM     32  N   UNL     1     -46.747  -5.562 -25.274  0.00  0.00    +0.000 NA
ATOM     33  C   UNL     1     -46.698  -5.740 -26.622  0.00  0.00    +0.000 A 
ENDBRANCH  23  28
ENDBRANCH   7  19
TORSDOF 3
ENDMDL
MODEL 3
REMARK VINA RESULT:      -7.2     11.536     15.337
REMARK  Name = ZINC000019126373 ZINC19126373 PubChem-92555022
REMARK  3 active torsions:
REMARK  status: ('A' for Active; 'I' for Inactive)
REMARK    1  A    between atoms: C_1  and  C_14
REMARK    2  A    between atoms: C_7  and  C_19
REMARK    3  A    between atoms: C_23  and  C_25
REMARK                            x       y       z     vdW  Elec       q    Type
REMARK                         _______ _______ _______ _____ _____    ______ ____
ROOT
ATOM      1  C   UNL     1     -45.028 -15.423 -18.358  0.00  0.00    +0.000 C 
ATOM      2  O   UNL     1     -44.101 -15.010 -17.609  0.00  0.00    +0.000 OA
ATOM      3  N   UNL     1     -46.277 -14.698 -18.390  0.00  0.00    +0.000 N 
ATOM      4  C   UNL     1     -46.420 -13.477 -17.605  0.00  0.00    +0.000 C 
ATOM      5  C   UNL     1     -46.349 -12.274 -18.540  0.00  0.00    +0.000 C 
ATOM      6  C   UNL     1     -47.414 -12.391 -19.634  0.00  0.00    +0.000 C 
ATOM      7  C   UNL     1     -47.340 -13.729 -20.386  0.00  0.00    +0.000 C 
ATOM      8  C   UNL     1     -47.287 -14.921 -19.423  0.00  0.00    +0.000 C 
ENDROOT
BRANCH   1  14
ATOM      9  C   UNL     1     -42.241 -20.161 -23.294  0.00  0.00    +0.000 C 
ATOM     10  C   UNL     1     -42.952 -19.372 -22.254  0.00  0.00    +0.000 A 
ATOM     11  C   UNL     1     -42.617 -18.069 -21.884  0.00  0.00    +0.000 A 
ATOM     12  C   UNL     1     -43.549 -17.788 -20.909  0.00  0.00    +0.000 A 
ATOM     13  C   UNL     1     -43.729 -16.633 -20.152  0.00  0.00    +0.000 A 
ATOM     14  C   UNL     1     -44.772 -16.615 -19.201  0.00  0.00    +0.000 A 
ATOM     15  C   UNL     1     -45.604 -17.753 -19.060  0.00  0.00    +0.000 A 
ATOM     16  C   UNL     1     -45.399 -18.905 -19.838  0.00  0.00    +0.000 A 
ATOM     17  C   UNL     1     -44.353 -18.882 -20.755  0.00  0.00    +0.000 A 
ATOM     18  O   UNL     1     -43.984 -19.832 -21.572  0.00  0.00    +0.000 OA
ENDBRANCH   1  14
BRANCH   7  19
ATOM     19  C   UNL     1     -46.249 -13.773 -21.416  0.00  0.00    +0.000 A 
ATOM     20  C   UNL     1     -45.286 -12.766 -21.504  0.00  0.00    +0.000 A 
ATOM     21  C   UNL     1     -44.274 -12.882 -22.460  0.00  0.00    +0.000 A 
ATOM     22  N   UNL     1     -44.252 -13.963 -23.283  0.00  0.00    +0.000 NA
ATOM     23  C   UNL     1     -45.198 -14.938 -23.195  0.00  0.00    +0.000 A 
ATOM     24  N   UNL     1     -46.184 -14.835 -22.262  0.00  0.00    +0.000 NA
ATOM     25  N   UNL     1     -43.255 -11.887 -22.581  0.00  0.00    +0.000 N 
ATOM     26  C   UNL     1     -43.431 -10.517 -22.127  0.00  0.00    +0.000 C 
ATOM     27  H   UNL     1     -42.396 -12.140 -22.990  0.00  0.00    +0.000 HD
BRANCH  23  28
ATOM     28  C   UNL     1     -45.149 -16.103 -24.097  0.00  0.00    +0.000 A 
ATOM     29  C   UNL     1     -45.715 -17.327 -23.718  0.00  0.00    +0.000 A 
ATOM     30  C   UNL     1     -45.662 -18.422 -24.581  0.00  0.00    +0.000 A 
ATOM     31  C   UNL     1     -45.039 -18.282 -25.822  0.00  0.00    +0.000 A 
ATOM     32  N   UNL     1     -44.494 -17.090 -26.180  0.00  0.00    +0.000 NA
ATOM     33  C   UNL     1     -44.535 -16.010 -25.353  0.00  0.00    +0.000 A 
ENDBRANCH  23  28
ENDBRANCH   7  19
TORSDOF 3
ENDMDL
