MODEL 1
REMARK VINA RESULT:      -7.1      0.000      0.000
REMARK  Name = ZINC000019138008
REMARK  5 active torsions:
REMARK  status: ('A' for Active; 'I' for Inactive)
REMARK    1  A    between atoms: C_1  and  C_23
REMARK    2  A    between atoms: C_2  and  O_3
REMARK    3  A    between atoms: C_7  and  C_9
REMARK    4  A    between atoms: C_12  and  C_15
REMARK    5  A    between atoms: C_23  and  C_29
REMARK                            x       y       z     vdW  Elec       q    Type
REMARK                         _______ _______ _______ _____ _____    ______ ____
ROOT
ATOM      1  C   UNL     1     -45.502 -17.106 -25.124  0.00  0.00    +0.000 C 
ATOM      2  C   UNL     1     -44.850 -16.956 -26.276  0.00  0.00    +0.000 C 
ATOM      3  C   UNL     1     -44.880 -15.565 -26.649  0.00  0.00    +0.000 C 
ATOM      4  O   UNL     1     -44.375 -15.077 -27.695  0.00  0.00    +0.000 OA
ATOM      5  N   UNL     1     -45.581 -14.821 -25.667  0.00  0.00    +0.000 N 
ATOM      6  C   UNL     1     -46.000 -15.761 -24.625  0.00  0.00    +0.000 C 
ATOM      7  C   UNL     1     -45.973 -13.445 -25.764  0.00  0.00    +0.000 A 
ATOM      8  N   UNL     1     -46.806 -12.968 -26.711  0.00  0.00    +0.000 NA
ATOM      9  N   UNL     1     -47.024 -11.658 -26.601  0.00  0.00    +0.000 NA
ATOM     10  C   UNL     1     -46.374 -11.067 -25.570  0.00  0.00    +0.000 A 
ATOM     11  S   UNL     1     -45.469 -12.219 -24.733  0.00  0.00    +0.000 S 
ENDROOT
BRANCH   6  12
ATOM     12  C   UNL     1     -45.372 -15.406 -23.306  0.00  0.00    +0.000 A 
ATOM     13  C   UNL     1     -46.198 -15.098 -22.220  0.00  0.00    +0.000 A 
ATOM     14  C   UNL     1     -45.638 -14.769 -20.982  0.00  0.00    +0.000 A 
ATOM     15  C   UNL     1     -44.245 -14.745 -20.822  0.00  0.00    +0.000 A 
ATOM     16  C   UNL     1     -43.419 -15.053 -21.908  0.00  0.00    +0.000 A 
ATOM     17  C   UNL     1     -43.979 -15.382 -23.145  0.00  0.00    +0.000 A 
BRANCH  15  18
ATOM     18  C   UNL     1     -43.619 -14.398 -19.507  0.00  0.00    +0.000 C 
ATOM     19  C   UNL     1     -43.695 -15.565 -18.541  0.00  0.00    +0.000 C 
ATOM     20  C   UNL     1     -44.272 -13.171 -18.898  0.00  0.00    +0.000 C 
ENDBRANCH  15  18
ENDBRANCH   6  12
BRANCH   2  21
ATOM     21  O   UNL     1     -44.253 -17.974 -27.011  0.00  0.00    +0.000 OA
ATOM     22  H   UNL     1     -43.604 -17.768 -27.655  0.00  0.00    +0.000 HD
ENDBRANCH   2  21
BRANCH   1  23
ATOM     23  C   UNL     1     -45.682 -18.399 -24.419  0.00  0.00    +0.000 C 
ATOM     24  O   UNL     1     -46.333 -19.319 -24.985  0.00  0.00    +0.000 OA
BRANCH  23  29
ATOM     25  C   UNL     1     -43.482 -19.326 -19.162  0.00  0.00    +0.000 C 
ATOM     26  C   UNL     1     -44.044 -19.089 -20.516  0.00  0.00    +0.000 A 
ATOM     27  C   UNL     1     -43.227 -19.210 -21.642  0.00  0.00    +0.000 A 
ATOM     28  C   UNL     1     -43.757 -18.988 -22.917  0.00  0.00    +0.000 A 
ATOM     29  C   UNL     1     -45.109 -18.652 -23.078  0.00  0.00    +0.000 A 
ATOM     30  C   UNL     1     -45.918 -18.519 -21.939  0.00  0.00    +0.000 A 
ATOM     31  C   UNL     1     -45.389 -18.741 -20.664  0.00  0.00    +0.000 A 
ENDBRANCH  23  29
ENDBRANCH   1  23
TORSDOF 5
ENDMDL
MODEL 2
REMARK VINA RESULT:      -6.5     10.231     15.339
REMARK  Name = ZINC000019138008
REMARK  5 active torsions:
REMARK  status: ('A' for Active; 'I' for Inactive)
REMARK    1  A    between atoms: C_1  and  C_23
REMARK    2  A    between atoms: C_2  and  O_3
REMARK    3  A    between atoms: C_7  and  C_9
REMARK    4  A    between atoms: C_12  and  C_15
REMARK    5  A    between atoms: C_23  and  C_29
REMARK                            x       y       z     vdW  Elec       q    Type
REMARK                         _______ _______ _______ _____ _____    ______ ____
ROOT
ATOM      1  C   UNL     1     -46.231  -4.557 -32.068  0.00  0.00    +0.000 C 
ATOM      2  C   UNL     1     -46.961  -4.553 -30.954  0.00  0.00    +0.000 C 
ATOM      3  C   UNL     1     -46.888  -5.855 -30.345  0.00  0.00    +0.000 C 
ATOM      4  O   UNL     1     -47.478  -6.204 -29.289  0.00  0.00    +0.000 OA
ATOM      5  N   UNL     1     -46.059  -6.702 -31.124  0.00  0.00    +0.000 N 
ATOM      6  C   UNL     1     -45.574  -5.913 -32.259  0.00  0.00    +0.000 C 
ATOM      7  C   UNL     1     -45.879  -8.114 -30.944  0.00  0.00    +0.000 A 
ATOM      8  N   UNL     1     -46.878  -9.014 -31.039  0.00  0.00    +0.000 NA
ATOM      9  N   UNL     1     -46.472 -10.267 -30.833  0.00  0.00    +0.000 NA
ATOM     10  C   UNL     1     -45.149 -10.389 -30.570  0.00  0.00    +0.000 A 
ATOM     11  S   UNL     1     -44.420  -8.868 -30.591  0.00  0.00    +0.000 S 
ENDROOT
BRANCH   6  12
ATOM     12  C   UNL     1     -44.075  -5.800 -32.225  0.00  0.00    +0.000 A 
ATOM     13  C   UNL     1     -43.332  -6.262 -33.316  0.00  0.00    +0.000 A 
ATOM     14  C   UNL     1     -41.939  -6.163 -33.311  0.00  0.00    +0.000 A 
ATOM     15  C   UNL     1     -41.275  -5.600 -32.210  0.00  0.00    +0.000 A 
ATOM     16  C   UNL     1     -42.018  -5.138 -31.118  0.00  0.00    +0.000 A 
ATOM     17  C   UNL     1     -43.412  -5.237 -31.125  0.00  0.00    +0.000 A 
BRANCH  15  18
ATOM     18  C   UNL     1     -39.784  -5.481 -32.178  0.00  0.00    +0.000 C 
ATOM     19  C   UNL     1     -39.326  -4.182 -32.813  0.00  0.00    +0.000 C 
ATOM     20  C   UNL     1     -39.126  -6.661 -32.870  0.00  0.00    +0.000 C 
ENDBRANCH  15  18
ENDBRANCH   6  12
BRANCH   2  21
ATOM     21  O   UNL     1     -47.692  -3.476 -30.466  0.00  0.00    +0.000 OA
ATOM     22  H   UNL     1     -48.583  -3.596 -30.202  0.00  0.00    +0.000 HD
ENDBRANCH   2  21
BRANCH   1  23
ATOM     23  C   UNL     1     -46.060  -3.391 -32.970  0.00  0.00    +0.000 C 
ATOM     24  O   UNL     1     -46.976  -3.113 -33.791  0.00  0.00    +0.000 OA
BRANCH  23  29
ATOM     25  C   UNL     1     -41.319  -0.100 -32.808  0.00  0.00    +0.000 C 
ATOM     26  C   UNL     1     -42.541  -0.943 -32.847  0.00  0.00    +0.000 A 
ATOM     27  C   UNL     1     -43.609  -0.665 -31.991  0.00  0.00    +0.000 A 
ATOM     28  C   UNL     1     -44.759  -1.459 -32.029  0.00  0.00    +0.000 A 
ATOM     29  C   UNL     1     -44.856  -2.532 -32.927  0.00  0.00    +0.000 A 
ATOM     30  C   UNL     1     -43.771  -2.811 -33.773  0.00  0.00    +0.000 A 
ATOM     31  C   UNL     1     -42.620  -2.018 -33.736  0.00  0.00    +0.000 A 
ENDBRANCH  23  29
ENDBRANCH   1  23
TORSDOF 5
ENDMDL
MODEL 3
REMARK VINA RESULT:      -6.5      4.299      6.914
REMARK  Name = ZINC000019138008
REMARK  5 active torsions:
REMARK  status: ('A' for Active; 'I' for Inactive)
REMARK    1  A    between atoms: C_1  and  C_23
REMARK    2  A    between atoms: C_2  and  O_3
REMARK    3  A    between atoms: C_7  and  C_9
REMARK    4  A    between atoms: C_12  and  C_15
REMARK    5  A    between atoms: C_23  and  C_29
REMARK                            x       y       z     vdW  Elec       q    Type
REMARK                         _______ _______ _______ _____ _____    ______ ____
ROOT
ATOM      1  C   UNL     1     -44.695 -18.661 -20.391  0.00  0.00    +0.000 C 
ATOM      2  C   UNL     1     -43.598 -18.600 -19.638  0.00  0.00    +0.000 C 
ATOM      3  C   UNL     1     -42.508 -19.212 -20.352  0.00  0.00    +0.000 C 
ATOM      4  O   UNL     1     -41.332 -19.343 -19.921  0.00  0.00    +0.000 OA
ATOM      5  N   UNL     1     -42.959 -19.665 -21.618  0.00  0.00    +0.000 N 
ATOM      6  C   UNL     1     -44.379 -19.319 -21.723  0.00  0.00    +0.000 C 
ATOM      7  C   UNL     1     -42.222 -20.476 -22.542  0.00  0.00    +0.000 A 
ATOM      8  N   UNL     1     -41.780 -21.719 -22.262  0.00  0.00    +0.000 NA
ATOM      9  N   UNL     1     -41.119 -22.278 -23.275  0.00  0.00    +0.000 NA
ATOM     10  C   UNL     1     -41.020 -21.496 -24.377  0.00  0.00    +0.000 A 
ATOM     11  S   UNL     1     -41.792 -20.022 -24.101  0.00  0.00    +0.000 S 
ENDROOT
BRANCH   6  12
ATOM     12  C   UNL     1     -44.611 -18.369 -22.865  0.00  0.00    +0.000 A 
ATOM     13  C   UNL     1     -45.614 -18.656 -23.796  0.00  0.00    +0.000 A 
ATOM     14  C   UNL     1     -45.853 -17.787 -24.864  0.00  0.00    +0.000 A 
ATOM     15  C   UNL     1     -45.085 -16.621 -25.009  0.00  0.00    +0.000 A 
ATOM     16  C   UNL     1     -44.081 -16.334 -24.078  0.00  0.00    +0.000 A 
ATOM     17  C   UNL     1     -43.844 -17.204 -23.011  0.00  0.00    +0.000 A 
BRANCH  15  18
ATOM     18  C   UNL     1     -45.319 -15.672 -26.142  0.00  0.00    +0.000 C 
ATOM     19  C   UNL     1     -44.044 -15.437 -26.930  0.00  0.00    +0.000 C 
ATOM     20  C   UNL     1     -45.876 -14.351 -25.643  0.00  0.00    +0.000 C 
ENDBRANCH  15  18
ENDBRANCH   6  12
BRANCH   2  21
ATOM     21  O   UNL     1     -43.517 -18.053 -18.362  0.00  0.00    +0.000 OA
ATOM     22  H   UNL     1     -43.243 -17.164 -18.249  0.00  0.00    +0.000 HD
ENDBRANCH   2  21
BRANCH   1  23
ATOM     23  C   UNL     1     -46.022 -18.130 -19.993  0.00  0.00    +0.000 C 
ATOM     24  O   UNL     1     -46.952 -18.941 -19.732  0.00  0.00    +0.000 OA
BRANCH  23  29
ATOM     25  C   UNL     1     -47.121 -12.482 -19.514  0.00  0.00    +0.000 C 
ATOM     26  C   UNL     1     -46.836 -13.934 -19.641  0.00  0.00    +0.000 A 
ATOM     27  C   UNL     1     -46.262 -14.433 -20.813  0.00  0.00    +0.000 A 
ATOM     28  C   UNL     1     -45.993 -15.800 -20.931  0.00  0.00    +0.000 A 
ATOM     29  C   UNL     1     -46.287 -16.679 -19.878  0.00  0.00    +0.000 A 
ATOM     30  C   UNL     1     -46.876 -16.169 -18.710  0.00  0.00    +0.000 A 
ATOM     31  C   UNL     1     -47.145 -14.802 -18.591  0.00  0.00    +0.000 A 
ENDBRANCH  23  29
ENDBRANCH   1  23
TORSDOF 5
ENDMDL
