MODEL 1
REMARK VINA RESULT:      -7.2      0.000      0.000
REMARK  Name = ZINC000409246055 PubChem-126252235
REMARK  6 active torsions:
REMARK  status: ('A' for Active; 'I' for Inactive)
REMARK    1  A    between atoms: N_1  and  C_32
REMARK    2  A    between atoms: C_8  and  C_12
REMARK    3  A    between atoms: N_19  and  C_21
REMARK    4  A    between atoms: C_21  and  C_22
REMARK    5  A    between atoms: C_29  and  O_36
REMARK    6  A    between atoms: C_33  and  O_37
REMARK                            x       y       z     vdW  Elec       q    Type
REMARK                         _______ _______ _______ _____ _____    ______ ____
ROOT
ATOM      1  N   UNL     1     -45.530  -6.100 -31.028  0.00  0.00    +0.000 N 
ATOM      2  C   UNL     1     -46.535  -6.892 -31.693  0.00  0.00    +0.000 C 
ATOM      3  O   UNL     1     -46.931  -7.979 -31.194  0.00  0.00    +0.000 OA
ATOM      4  N   UNL     1     -47.091  -6.455 -32.935  0.00  0.00    +0.000 N 
ATOM      5  C   UNL     1     -46.603  -5.290 -33.599  0.00  0.00    +0.000 C 
ATOM      6  O   UNL     1     -47.108  -4.952 -34.703  0.00  0.00    +0.000 OA
ATOM      7  C   UNL     1     -45.500  -4.514 -33.003  0.00  0.00    +0.000 C 
ATOM      8  C   UNL     1     -44.922  -3.546 -33.736  0.00  0.00    +0.000 C 
ATOM      9  C   UNL     1     -45.123  -4.844 -31.606  0.00  0.00    +0.000 C 
ATOM     10  O   UNL     1     -44.524  -3.994 -30.890  0.00  0.00    +0.000 OA
ATOM     11  H   UNL     1     -47.826  -6.969 -33.341  0.00  0.00    +0.000 HD
ENDROOT
BRANCH   8  12
ATOM     12  C   UNL     1     -43.708  -2.777 -33.414  0.00  0.00    +0.000 A 
ATOM     13  C   UNL     1     -43.787  -1.477 -32.855  0.00  0.00    +0.000 A 
ATOM     14  C   UNL     1     -42.626  -0.780 -32.483  0.00  0.00    +0.000 A 
ATOM     15  C   UNL     1     -41.404  -1.424 -32.669  0.00  0.00    +0.000 A 
ATOM     16  C   UNL     1     -41.321  -2.687 -33.183  0.00  0.00    +0.000 A 
ATOM     17  C   UNL     1     -39.989  -3.049 -33.237  0.00  0.00    +0.000 A 
ATOM     18  C   UNL     1     -39.302  -1.939 -32.734  0.00  0.00    +0.000 A 
ATOM     19  N   UNL     1     -40.176  -0.965 -32.388  0.00  0.00    +0.000 N 
ATOM     20  C   UNL     1     -42.456  -3.402 -33.557  0.00  0.00    +0.000 A 
BRANCH  19  21
ATOM     21  C   UNL     1     -39.826   0.348 -31.865  0.00  0.00    +0.000 C 
BRANCH  21  22
ATOM     22  C   UNL     1     -38.954   1.074 -32.832  0.00  0.00    +0.000 A 
ATOM     23  C   UNL     1     -37.635   1.388 -32.488  0.00  0.00    +0.000 A 
ATOM     24  C   UNL     1     -36.827   2.096 -33.384  0.00  0.00    +0.000 A 
ATOM     25  C   UNL     1     -37.339   2.494 -34.622  0.00  0.00    +0.000 A 
ATOM     26  C   UNL     1     -38.659   2.186 -34.965  0.00  0.00    +0.000 A 
ATOM     27  F   UNL     1     -39.156   2.577 -36.164  0.00  0.00    +0.000 F 
ATOM     28  C   UNL     1     -39.467   1.479 -34.070  0.00  0.00    +0.000 A 
ENDBRANCH  21  22
ENDBRANCH  19  21
ENDBRANCH   8  12
BRANCH   1  32
ATOM     29  C   UNL     1     -43.897  -7.402 -27.319  0.00  0.00    +0.000 A 
ATOM     30  C   UNL     1     -43.203  -7.616 -28.519  0.00  0.00    +0.000 A 
ATOM     31  C   UNL     1     -43.744  -7.182 -29.730  0.00  0.00    +0.000 A 
ATOM     32  C   UNL     1     -44.982  -6.525 -29.765  0.00  0.00    +0.000 A 
ATOM     33  C   UNL     1     -45.681  -6.300 -28.562  0.00  0.00    +0.000 A 
ATOM     34  C   UNL     1     -45.130  -6.744 -27.349  0.00  0.00    +0.000 A 
BRANCH  29  36
ATOM     35  C   UNL     1     -43.844  -7.310 -24.848  0.00  0.00    +0.000 C 
ATOM     36  O   UNL     1     -43.385  -7.826 -26.090  0.00  0.00    +0.000 OA
ENDBRANCH  29  36
BRANCH  33  37
ATOM     37  O   UNL     1     -46.908  -5.626 -28.590  0.00  0.00    +0.000 OA
ATOM     38  C   UNL     1     -47.075  -4.306 -28.090  0.00  0.00    +0.000 C 
ENDBRANCH  33  37
ENDBRANCH   1  32
TORSDOF 6
ENDMDL
MODEL 2
REMARK VINA RESULT:      -6.9      4.369      9.126
REMARK  Name = ZINC000409246055 PubChem-126252235
REMARK  6 active torsions:
REMARK  status: ('A' for Active; 'I' for Inactive)
REMARK    1  A    between atoms: N_1  and  C_32
REMARK    2  A    between atoms: C_8  and  C_12
REMARK    3  A    between atoms: N_19  and  C_21
REMARK    4  A    between atoms: C_21  and  C_22
REMARK    5  A    between atoms: C_29  and  O_36
REMARK    6  A    between atoms: C_33  and  O_37
REMARK                            x       y       z     vdW  Elec       q    Type
REMARK                         _______ _______ _______ _____ _____    ______ ____
ROOT
ATOM      1  N   UNL     1     -43.533  -6.979 -32.132  0.00  0.00    +0.000 N 
ATOM      2  C   UNL     1     -43.209  -7.972 -33.127  0.00  0.00    +0.000 C 
ATOM      3  O   UNL     1     -43.129  -7.659 -34.345  0.00  0.00    +0.000 OA
ATOM      4  N   UNL     1     -42.982  -9.329 -32.742  0.00  0.00    +0.000 N 
ATOM      5  C   UNL     1     -43.167  -9.761 -31.395  0.00  0.00    +0.000 C 
ATOM      6  O   UNL     1     -42.977 -10.972 -31.103  0.00  0.00    +0.000 OA
ATOM      7  C   UNL     1     -43.604  -8.796 -30.368  0.00  0.00    +0.000 C 
ATOM      8  C   UNL     1     -43.967  -9.260 -29.160  0.00  0.00    +0.000 C 
ATOM      9  C   UNL     1     -43.583  -7.360 -30.743  0.00  0.00    +0.000 C 
ATOM     10  O   UNL     1     -43.519  -6.470 -29.850  0.00  0.00    +0.000 OA
ATOM     11  H   UNL     1     -42.693  -9.980 -33.422  0.00  0.00    +0.000 HD
ENDROOT
BRANCH   8  12
ATOM     12  C   UNL     1     -44.593  -8.508 -28.059  0.00  0.00    +0.000 A 
ATOM     13  C   UNL     1     -45.951  -8.110 -28.119  0.00  0.00    +0.000 A 
ATOM     14  C   UNL     1     -46.560  -7.458 -27.034  0.00  0.00    +0.000 A 
ATOM     15  C   UNL     1     -45.782  -7.239 -25.898  0.00  0.00    +0.000 A 
ATOM     16  C   UNL     1     -44.480  -7.645 -25.823  0.00  0.00    +0.000 A 
ATOM     17  C   UNL     1     -43.986  -7.295 -24.581  0.00  0.00    +0.000 A 
ATOM     18  C   UNL     1     -45.059  -6.666 -23.940  0.00  0.00    +0.000 A 
ATOM     19  N   UNL     1     -46.143  -6.647 -24.751  0.00  0.00    +0.000 N 
ATOM     20  C   UNL     1     -43.852  -8.295 -26.882  0.00  0.00    +0.000 A 
BRANCH  19  21
ATOM     21  C   UNL     1     -47.431  -6.043 -24.439  0.00  0.00    +0.000 C 
BRANCH  21  22
ATOM     22  C   UNL     1     -47.395  -4.579 -24.720  0.00  0.00    +0.000 A 
ATOM     23  C   UNL     1     -47.485  -4.115 -26.037  0.00  0.00    +0.000 A 
ATOM     24  C   UNL     1     -47.421  -2.743 -26.303  0.00  0.00    +0.000 A 
ATOM     25  C   UNL     1     -47.263  -1.835 -25.253  0.00  0.00    +0.000 A 
ATOM     26  C   UNL     1     -47.167  -2.297 -23.936  0.00  0.00    +0.000 A 
ATOM     27  F   UNL     1     -47.009  -1.416 -22.919  0.00  0.00    +0.000 F 
ATOM     28  C   UNL     1     -47.231  -3.668 -23.670  0.00  0.00    +0.000 A 
ENDBRANCH  21  22
ENDBRANCH  19  21
ENDBRANCH   8  12
BRANCH   1  32
ATOM     29  C   UNL     1     -44.107  -2.904 -33.219  0.00  0.00    +0.000 A 
ATOM     30  C   UNL     1     -42.815  -3.419 -33.038  0.00  0.00    +0.000 A 
ATOM     31  C   UNL     1     -42.635  -4.758 -32.686  0.00  0.00    +0.000 A 
ATOM     32  C   UNL     1     -43.740  -5.605 -32.512  0.00  0.00    +0.000 A 
ATOM     33  C   UNL     1     -45.041  -5.095 -32.699  0.00  0.00    +0.000 A 
ATOM     34  C   UNL     1     -45.210  -3.745 -33.049  0.00  0.00    +0.000 A 
BRANCH  29  36
ATOM     35  C   UNL     1     -43.998  -0.487 -32.705  0.00  0.00    +0.000 C 
ATOM     36  O   UNL     1     -44.321  -1.568 -33.569  0.00  0.00    +0.000 OA
ENDBRANCH  29  36
BRANCH  33  37
ATOM     37  O   UNL     1     -46.145  -5.942 -32.546  0.00  0.00    +0.000 OA
ATOM     38  C   UNL     1     -46.990  -5.908 -31.405  0.00  0.00    +0.000 C 
ENDBRANCH  33  37
ENDBRANCH   1  32
TORSDOF 6
ENDMDL
MODEL 3
REMARK VINA RESULT:      -6.9      8.720     11.247
REMARK  Name = ZINC000409246055 PubChem-126252235
REMARK  6 active torsions:
REMARK  status: ('A' for Active; 'I' for Inactive)
REMARK    1  A    between atoms: N_1  and  C_32
REMARK    2  A    between atoms: C_8  and  C_12
REMARK    3  A    between atoms: N_19  and  C_21
REMARK    4  A    between atoms: C_21  and  C_22
REMARK    5  A    between atoms: C_29  and  O_36
REMARK    6  A    between atoms: C_33  and  O_37
REMARK                            x       y       z     vdW  Elec       q    Type
REMARK                         _______ _______ _______ _____ _____    ______ ____
ROOT
ATOM      1  N   UNL     1     -45.048 -14.508 -25.441  0.00  0.00    +0.000 N 
ATOM      2  C   UNL     1     -44.634 -15.485 -26.419  0.00  0.00    +0.000 C 
ATOM      3  O   UNL     1     -44.105 -16.570 -26.059  0.00  0.00    +0.000 OA
ATOM      4  N   UNL     1     -44.814 -15.228 -27.813  0.00  0.00    +0.000 N 
ATOM      5  C   UNL     1     -45.307 -13.974 -28.281  0.00  0.00    +0.000 C 
ATOM      6  O   UNL     1     -45.430 -13.783 -29.521  0.00  0.00    +0.000 OA
ATOM      7  C   UNL     1     -45.639 -12.909 -27.316  0.00  0.00    +0.000 C 
ATOM      8  C   UNL     1     -45.905 -11.676 -27.781  0.00  0.00    +0.000 C 
ATOM      9  C   UNL     1     -45.683 -13.291 -25.882  0.00  0.00    +0.000 C 
ATOM     10  O   UNL     1     -46.349 -12.603 -25.060  0.00  0.00    +0.000 OA
ATOM     11  H   UNL     1     -44.593 -15.933 -28.465  0.00  0.00    +0.000 HD
ENDROOT
BRANCH   8  12
ATOM     12  C   UNL     1     -46.084 -10.440 -27.001  0.00  0.00    +0.000 A 
ATOM     13  C   UNL     1     -47.373  -9.990 -26.621  0.00  0.00    +0.000 A 
ATOM     14  C   UNL     1     -47.530  -8.850 -25.816  0.00  0.00    +0.000 A 
ATOM     15  C   UNL     1     -46.372  -8.197 -25.395  0.00  0.00    +0.000 A 
ATOM     16  C   UNL     1     -45.126  -8.641 -25.735  0.00  0.00    +0.000 A 
ATOM     17  C   UNL     1     -44.193  -7.796 -25.165  0.00  0.00    +0.000 A 
ATOM     18  C   UNL     1     -44.954  -6.841 -24.481  0.00  0.00    +0.000 A 
ATOM     19  N   UNL     1     -46.274  -7.103 -24.626  0.00  0.00    +0.000 N 
ATOM     20  C   UNL     1     -44.941  -9.769 -26.530  0.00  0.00    +0.000 A 
BRANCH  19  21
ATOM     21  C   UNL     1     -47.366  -6.305 -24.087  0.00  0.00    +0.000 C 
BRANCH  21  22
ATOM     22  C   UNL     1     -47.345  -4.936 -24.679  0.00  0.00    +0.000 A 
ATOM     23  C   UNL     1     -47.380  -4.773 -26.068  0.00  0.00    +0.000 A 
ATOM     24  C   UNL     1     -47.330  -3.490 -26.624  0.00  0.00    +0.000 A 
ATOM     25  C   UNL     1     -47.240  -2.371 -25.791  0.00  0.00    +0.000 A 
ATOM     26  C   UNL     1     -47.200  -2.533 -24.403  0.00  0.00    +0.000 A 
ATOM     27  F   UNL     1     -47.108  -1.448 -23.597  0.00  0.00    +0.000 F 
ATOM     28  C   UNL     1     -47.249  -3.815 -23.847  0.00  0.00    +0.000 A 
ENDBRANCH  21  22
ENDBRANCH  19  21
ENDBRANCH   8  12
BRANCH   1  32
ATOM     29  C   UNL     1     -44.631 -15.271 -21.275  0.00  0.00    +0.000 A 
ATOM     30  C   UNL     1     -45.771 -15.702 -21.969  0.00  0.00    +0.000 A 
ATOM     31  C   UNL     1     -45.898 -15.452 -23.336  0.00  0.00    +0.000 A 
ATOM     32  C   UNL     1     -44.889 -14.771 -24.034  0.00  0.00    +0.000 A 
ATOM     33  C   UNL     1     -43.737 -14.342 -23.343  0.00  0.00    +0.000 A 
ATOM     34  C   UNL     1     -43.622 -14.595 -21.967  0.00  0.00    +0.000 A 
BRANCH  29  36
ATOM     35  C   UNL     1     -45.214 -16.496 -19.207  0.00  0.00    +0.000 C 
ATOM     36  O   UNL     1     -44.474 -15.504 -19.906  0.00  0.00    +0.000 OA
ENDBRANCH  29  36
BRANCH  33  37
ATOM     37  O   UNL     1     -42.719 -13.680 -24.040  0.00  0.00    +0.000 OA
ATOM     38  C   UNL     1     -42.605 -12.264 -24.079  0.00  0.00    +0.000 C 
ENDBRANCH  33  37
ENDBRANCH   1  32
TORSDOF 6
ENDMDL
