MODEL 1
REMARK VINA RESULT:      -6.0      0.000      0.000
REMARK  Name = ZINC001529174993 MolPort-046-525-132
REMARK  5 active torsions:
REMARK  status: ('A' for Active; 'I' for Inactive)
REMARK    1  A    between atoms: N_1  and  C_19
REMARK    2  A    between atoms: C_2  and  C_5
REMARK    3  A    between atoms: C_11  and  C_13
REMARK    4  A    between atoms: C_19  and  C_21
REMARK    5  A    between atoms: C_20  and  O_30
REMARK                            x       y       z     vdW  Elec       q    Type
REMARK                         _______ _______ _______ _____ _____    ______ ____
ROOT
ATOM      1  N   UNL     1     -47.002  -5.302 -34.308  0.00  0.00    +0.000 N 
ATOM      2  C   UNL     1     -46.387  -6.593 -34.335  0.00  0.00    +0.000 C 
ATOM      3  O   UNL     1     -46.064  -7.098 -35.443  0.00  0.00    +0.000 OA
ATOM      4  H   UNL     1     -47.147  -4.838 -35.163  0.00  0.00    +0.000 HD
ENDROOT
BRANCH   2   5
ATOM      5  C   UNL     1     -46.111  -7.343 -33.068  0.00  0.00    +0.000 C 
ATOM      6  O   UNL     1     -46.896  -8.513 -33.025  0.00  0.00    +0.000 OA
ATOM      7  C   UNL     1     -46.906  -8.959 -31.689  0.00  0.00    +0.000 C 
ATOM      8  C   UNL     1     -45.521  -9.332 -31.256  0.00  0.00    +0.000 C 
ATOM      9  O   UNL     1     -45.338 -10.207 -30.371  0.00  0.00    +0.000 OA
ATOM     10  N   UNL     1     -44.411  -8.646 -31.838  0.00  0.00    +0.000 N 
ATOM     11  C   UNL     1     -44.618  -7.705 -32.939  0.00  0.00    +0.000 C 
ATOM     12  H   UNL     1     -43.502  -8.808 -31.497  0.00  0.00    +0.000 HD
BRANCH  11  13
ATOM     13  C   UNL     1     -43.764  -6.491 -32.744  0.00  0.00    +0.000 A 
ATOM     14  C   UNL     1     -43.691  -5.901 -31.478  0.00  0.00    +0.000 A 
ATOM     15  C   UNL     1     -42.892  -4.771 -31.274  0.00  0.00    +0.000 A 
ATOM     16  C   UNL     1     -42.164  -4.228 -32.337  0.00  0.00    +0.000 A 
ATOM     17  C   UNL     1     -42.235  -4.813 -33.604  0.00  0.00    +0.000 A 
ATOM     18  C   UNL     1     -43.033  -5.942 -33.809  0.00  0.00    +0.000 A 
ENDBRANCH  11  13
ENDBRANCH   2   5
BRANCH   1  19
ATOM     19  C   UNL     1     -47.426  -4.634 -33.081  0.00  0.00    +0.000 C 
BRANCH  19  21
ATOM     20  C   UNL     1     -46.395  -3.096 -31.362  0.00  0.00    +0.000 A 
ATOM     21  C   UNL     1     -46.452  -3.565 -32.694  0.00  0.00    +0.000 A 
ATOM     22  C   UNL     1     -45.589  -3.034 -33.668  0.00  0.00    +0.000 A 
ATOM     23  C   UNL     1     -44.693  -2.034 -33.296  0.00  0.00    +0.000 A 
ATOM     24  C   UNL     1     -43.720  -1.356 -34.176  0.00  0.00    +0.000 C 
ATOM     25  C   UNL     1     -43.015  -0.360 -33.243  0.00  0.00    +0.000 C 
ATOM     26  C   UNL     1     -43.623  -0.512 -31.841  0.00  0.00    +0.000 C 
ATOM     27  C   UNL     1     -44.640  -1.569 -32.011  0.00  0.00    +0.000 A 
ATOM     28  C   UNL     1     -45.477  -2.081 -31.022  0.00  0.00    +0.000 A 
BRANCH  20  30
ATOM     29  C   UNL     1     -46.801  -4.535 -29.386  0.00  0.00    +0.000 C 
ATOM     30  O   UNL     1     -47.251  -3.645 -30.399  0.00  0.00    +0.000 OA
ENDBRANCH  20  30
ENDBRANCH  19  21
ENDBRANCH   1  19
TORSDOF 5
ENDMDL
MODEL 2
REMARK VINA RESULT:      -5.8     12.593     16.900
REMARK  Name = ZINC001529174993 MolPort-046-525-132
REMARK  5 active torsions:
REMARK  status: ('A' for Active; 'I' for Inactive)
REMARK    1  A    between atoms: N_1  and  C_19
REMARK    2  A    between atoms: C_2  and  C_5
REMARK    3  A    between atoms: C_11  and  C_13
REMARK    4  A    between atoms: C_19  and  C_21
REMARK    5  A    between atoms: C_20  and  O_30
REMARK                            x       y       z     vdW  Elec       q    Type
REMARK                         _______ _______ _______ _____ _____    ______ ____
ROOT
ATOM      1  N   UNL     1     -46.386 -14.514 -22.044  0.00  0.00    +0.000 N 
ATOM      2  C   UNL     1     -46.590 -14.172 -20.670  0.00  0.00    +0.000 C 
ATOM      3  O   UNL     1     -47.756 -13.919 -20.265  0.00  0.00    +0.000 OA
ATOM      4  H   UNL     1     -47.171 -14.551 -22.635  0.00  0.00    +0.000 HD
ENDROOT
BRANCH   2   5
ATOM      5  C   UNL     1     -45.442 -14.123 -19.708  0.00  0.00    +0.000 C 
ATOM      6  O   UNL     1     -45.293 -12.814 -19.208  0.00  0.00    +0.000 OA
ATOM      7  C   UNL     1     -44.005 -12.729 -18.644  0.00  0.00    +0.000 C 
ATOM      8  C   UNL     1     -43.884 -13.669 -17.483  0.00  0.00    +0.000 C 
ATOM      9  O   UNL     1     -43.096 -13.420 -16.534  0.00  0.00    +0.000 OA
ATOM     10  N   UNL     1     -44.649 -14.875 -17.493  0.00  0.00    +0.000 N 
ATOM     11  C   UNL     1     -45.639 -15.113 -18.542  0.00  0.00    +0.000 C 
ATOM     12  H   UNL     1     -44.510 -15.549 -16.788  0.00  0.00    +0.000 HD
BRANCH  11  13
ATOM     13  C   UNL     1     -45.569 -16.538 -19.001  0.00  0.00    +0.000 A 
ATOM     14  C   UNL     1     -44.325 -17.170 -19.082  0.00  0.00    +0.000 A 
ATOM     15  C   UNL     1     -44.239 -18.502 -19.499  0.00  0.00    +0.000 A 
ATOM     16  C   UNL     1     -45.399 -19.204 -19.838  0.00  0.00    +0.000 A 
ATOM     17  C   UNL     1     -46.645 -18.576 -19.760  0.00  0.00    +0.000 A 
ATOM     18  C   UNL     1     -46.731 -17.245 -19.343  0.00  0.00    +0.000 A 
ENDBRANCH  11  13
ENDBRANCH   2   5
BRANCH   1  19
ATOM     19  C   UNL     1     -45.077 -14.810 -22.617  0.00  0.00    +0.000 C 
BRANCH  19  21
ATOM     20  C   UNL     1     -45.925 -16.329 -24.450  0.00  0.00    +0.000 A 
ATOM     21  C   UNL     1     -45.093 -16.129 -23.324  0.00  0.00    +0.000 A 
ATOM     22  C   UNL     1     -44.269 -17.169 -22.861  0.00  0.00    +0.000 A 
ATOM     23  C   UNL     1     -44.300 -18.394 -23.524  0.00  0.00    +0.000 A 
ATOM     24  C   UNL     1     -43.514 -19.597 -23.182  0.00  0.00    +0.000 C 
ATOM     25  C   UNL     1     -43.950 -20.630 -24.233  0.00  0.00    +0.000 C 
ATOM     26  C   UNL     1     -44.985 -19.964 -25.151  0.00  0.00    +0.000 C 
ATOM     27  C   UNL     1     -45.109 -18.597 -24.608  0.00  0.00    +0.000 A 
ATOM     28  C   UNL     1     -45.931 -17.582 -25.095  0.00  0.00    +0.000 A 
BRANCH  20  30
ATOM     29  C   UNL     1     -46.255 -14.275 -25.797  0.00  0.00    +0.000 C 
ATOM     30  O   UNL     1     -46.730 -15.278 -24.909  0.00  0.00    +0.000 OA
ENDBRANCH  20  30
ENDBRANCH  19  21
ENDBRANCH   1  19
TORSDOF 5
ENDMDL
MODEL 3
REMARK VINA RESULT:      -5.8     14.758     17.247
REMARK  Name = ZINC001529174993 MolPort-046-525-132
REMARK  5 active torsions:
REMARK  status: ('A' for Active; 'I' for Inactive)
REMARK    1  A    between atoms: N_1  and  C_19
REMARK    2  A    between atoms: C_2  and  C_5
REMARK    3  A    between atoms: C_11  and  C_13
REMARK    4  A    between atoms: C_19  and  C_21
REMARK    5  A    between atoms: C_20  and  O_30
REMARK                            x       y       z     vdW  Elec       q    Type
REMARK                         _______ _______ _______ _____ _____    ______ ____
ROOT
ATOM      1  N   UNL     1     -45.799 -14.522 -22.012  0.00  0.00    +0.000 N 
ATOM      2  C   UNL     1     -46.505 -14.152 -20.824  0.00  0.00    +0.000 C 
ATOM      3  O   UNL     1     -47.730 -13.869 -20.898  0.00  0.00    +0.000 OA
ATOM      4  H   UNL     1     -46.299 -14.553 -22.858  0.00  0.00    +0.000 HD
ENDROOT
BRANCH   2   5
ATOM      5  C   UNL     1     -45.811 -14.111 -19.496  0.00  0.00    +0.000 C 
ATOM      6  O   UNL     1     -45.995 -12.847 -18.900  0.00  0.00    +0.000 OA
ATOM      7  C   UNL     1     -45.028 -12.722 -17.884  0.00  0.00    +0.000 C 
ATOM      8  C   UNL     1     -45.254 -13.755 -16.822  0.00  0.00    +0.000 C 
ATOM      9  O   UNL     1     -44.909 -13.540 -15.632  0.00  0.00    +0.000 OA
ATOM     10  N   UNL     1     -45.833 -15.007 -17.194  0.00  0.00    +0.000 N 
ATOM     11  C   UNL     1     -46.328 -15.217 -18.554  0.00  0.00    +0.000 C 
ATOM     12  H   UNL     1     -45.899 -15.732 -16.531  0.00  0.00    +0.000 HD
BRANCH  11  13
ATOM     13  C   UNL     1     -45.946 -16.584 -19.034  0.00  0.00    +0.000 A 
ATOM     14  C   UNL     1     -46.950 -17.485 -19.403  0.00  0.00    +0.000 A 
ATOM     15  C   UNL     1     -46.613 -18.762 -19.863  0.00  0.00    +0.000 A 
ATOM     16  C   UNL     1     -45.272 -19.141 -19.954  0.00  0.00    +0.000 A 
ATOM     17  C   UNL     1     -44.265 -18.245 -19.584  0.00  0.00    +0.000 A 
ATOM     18  C   UNL     1     -44.600 -16.968 -19.125  0.00  0.00    +0.000 A 
ENDBRANCH  11  13
ENDBRANCH   2   5
BRANCH   1  19
ATOM     19  C   UNL     1     -44.378 -14.854 -22.037  0.00  0.00    +0.000 C 
BRANCH  19  21
ATOM     20  C   UNL     1     -42.896 -16.829 -22.577  0.00  0.00    +0.000 A 
ATOM     21  C   UNL     1     -44.158 -16.198 -22.660  0.00  0.00    +0.000 A 
ATOM     22  C   UNL     1     -45.222 -16.830 -23.326  0.00  0.00    +0.000 A 
ATOM     23  C   UNL     1     -45.001 -18.077 -23.908  0.00  0.00    +0.000 A 
ATOM     24  C   UNL     1     -45.989 -18.887 -24.648  0.00  0.00    +0.000 C 
ATOM     25  C   UNL     1     -45.202 -20.141 -25.057  0.00  0.00    +0.000 C 
ATOM     26  C   UNL     1     -43.769 -19.996 -24.523  0.00  0.00    +0.000 C 
ATOM     27  C   UNL     1     -43.779 -18.688 -23.839  0.00  0.00    +0.000 A 
ATOM     28  C   UNL     1     -42.709 -18.089 -23.179  0.00  0.00    +0.000 A 
BRANCH  20  30
ATOM     29  C   UNL     1     -40.987 -16.875 -20.997  0.00  0.00    +0.000 C 
ATOM     30  O   UNL     1     -41.849 -16.192 -21.897  0.00  0.00    +0.000 OA
ENDBRANCH  20  30
ENDBRANCH  19  21
ENDBRANCH   1  19
TORSDOF 5
ENDMDL
