MODEL 1
REMARK VINA RESULT:      -7.4      0.000      0.000
REMARK  Name = ZINC000253471169 PubChem-124891265
REMARK  9 active torsions:
REMARK  status: ('A' for Active; 'I' for Inactive)
REMARK    1  A    between atoms: C_1  and  C_2
REMARK    2  A    between atoms: C_1  and  C_18
REMARK    3  A    between atoms: C_1  and  C_25
REMARK    4  A    between atoms: C_3  and  O_4
REMARK    5  A    between atoms: C_15  and  O_24
REMARK    6  A    between atoms: C_20  and  O_21
REMARK    7  A    between atoms: C_25  and  C_26
REMARK    8  A    between atoms: N_28  and  C_30
REMARK    9  A    between atoms: C_30  and  C_31
REMARK                            x       y       z     vdW  Elec       q    Type
REMARK                         _______ _______ _______ _____ _____    ______ ____
ROOT
ATOM      1  C   UNL     1     -45.811  -6.106 -30.462  0.00  0.00    +0.000 C 
ENDROOT
BRANCH   1   2
ATOM      2  C   UNL     1     -45.505  -4.684 -30.856  0.00  0.00    +0.000 A 
ATOM      3  C   UNL     1     -44.246  -4.385 -31.395  0.00  0.00    +0.000 A 
ATOM      4  C   UNL     1     -43.945  -3.068 -31.755  0.00  0.00    +0.000 A 
ATOM      5  C   UNL     1     -42.704  -2.727 -32.310  0.00  0.00    +0.000 A 
ATOM      6  C   UNL     1     -42.434  -1.398 -32.654  0.00  0.00    +0.000 A 
ATOM      7  C   UNL     1     -43.403  -0.410 -32.448  0.00  0.00    +0.000 A 
ATOM      8  C   UNL     1     -44.644  -0.746 -31.899  0.00  0.00    +0.000 A 
ATOM      9  C   UNL     1     -44.921  -2.071 -31.552  0.00  0.00    +0.000 A 
ATOM     10  O   UNL     1     -46.104  -2.386 -31.035  0.00  0.00    +0.000 OA
ATOM     11  C   UNL     1     -46.430  -3.629 -30.689  0.00  0.00    +0.000 A 
ATOM     12  O   UNL     1     -47.576  -3.848 -30.215  0.00  0.00    +0.000 OA
BRANCH   3  13
ATOM     13  O   UNL     1     -43.303  -5.396 -31.576  0.00  0.00    +0.000 OA
ATOM     14  H   UNL     1     -42.764  -5.402 -32.342  0.00  0.00    +0.000 HD
ENDBRANCH   3  13
ENDBRANCH   1   2
BRANCH   1  18
ATOM     15  C   UNL     1     -45.161  -6.795 -26.247  0.00  0.00    +0.000 A 
ATOM     16  C   UNL     1     -44.146  -7.067 -27.171  0.00  0.00    +0.000 A 
ATOM     17  C   UNL     1     -44.346  -6.857 -28.536  0.00  0.00    +0.000 A 
ATOM     18  C   UNL     1     -45.574  -6.376 -29.003  0.00  0.00    +0.000 A 
ATOM     19  C   UNL     1     -46.595  -6.103 -28.090  0.00  0.00    +0.000 A 
ATOM     20  C   UNL     1     -46.401  -6.307 -26.720  0.00  0.00    +0.000 A 
BRANCH  20  21
ATOM     21  O   UNL     1     -47.447  -6.009 -25.854  0.00  0.00    +0.000 OA
ATOM     22  H   UNL     1     -47.489  -6.418 -25.012  0.00  0.00    +0.000 HD
ENDBRANCH  20  21
BRANCH  15  24
ATOM     23  C   UNL     1     -43.574  -7.197 -24.356  0.00  0.00    +0.000 C 
ATOM     24  O   UNL     1     -44.879  -7.025 -24.892  0.00  0.00    +0.000 OA
ENDBRANCH  15  24
ENDBRANCH   1  18
BRANCH   1  25
ATOM     25  C   UNL     1     -47.169  -6.594 -30.973  0.00  0.00    +0.000 C 
BRANCH  25  26
ATOM     26  C   UNL     1     -47.160  -8.069 -31.194  0.00  0.00    +0.000 C 
ATOM     27  O   UNL     1     -47.108  -8.521 -32.367  0.00  0.00    +0.000 OA
ATOM     28  N   UNL     1     -47.203  -8.955 -30.074  0.00  0.00    +0.000 N 
ATOM     29  H   UNL     1     -47.336  -8.577 -29.176  0.00  0.00    +0.000 HD
BRANCH  28  30
ATOM     30  C   UNL     1     -47.058 -10.394 -30.215  0.00  0.00    +0.000 C 
BRANCH  30  31
ATOM     31  C   UNL     1     -46.826 -11.000 -28.876  0.00  0.00    +0.000 A 
ATOM     32  C   UNL     1     -46.994 -12.393 -28.701  0.00  0.00    +0.000 A 
ATOM     33  C   UNL     1     -46.754 -12.989 -27.451  0.00  0.00    +0.000 A 
ATOM     34  C   UNL     1     -46.345 -12.159 -26.411  0.00  0.00    +0.000 A 
ATOM     35  C   UNL     1     -46.178 -10.822 -26.579  0.00  0.00    +0.000 A 
ATOM     36  C   UNL     1     -46.403 -10.196 -27.802  0.00  0.00    +0.000 A 
ATOM     37  O   UNL     1     -45.774 -10.257 -25.385  0.00  0.00    +0.000 OA
ATOM     38  C   UNL     1     -45.685 -11.301 -24.405  0.00  0.00    +0.000 C 
ATOM     39  O   UNL     1     -46.055 -12.498 -25.104  0.00  0.00    +0.000 OA
ENDBRANCH  30  31
ENDBRANCH  28  30
ENDBRANCH  25  26
ENDBRANCH   1  25
TORSDOF 9
ENDMDL
MODEL 2
REMARK VINA RESULT:      -7.4      2.607      5.938
REMARK  Name = ZINC000253471169 PubChem-124891265
REMARK  9 active torsions:
REMARK  status: ('A' for Active; 'I' for Inactive)
REMARK    1  A    between atoms: C_1  and  C_2
REMARK    2  A    between atoms: C_1  and  C_18
REMARK    3  A    between atoms: C_1  and  C_25
REMARK    4  A    between atoms: C_3  and  O_4
REMARK    5  A    between atoms: C_15  and  O_24
REMARK    6  A    between atoms: C_20  and  O_21
REMARK    7  A    between atoms: C_25  and  C_26
REMARK    8  A    between atoms: N_28  and  C_30
REMARK    9  A    between atoms: C_30  and  C_31
REMARK                            x       y       z     vdW  Elec       q    Type
REMARK                         _______ _______ _______ _____ _____    ______ ____
ROOT
ATOM      1  C   UNL     1     -45.260  -4.174 -31.490  0.00  0.00    +0.000 C 
ENDROOT
BRANCH   1   2
ATOM      2  C   UNL     1     -45.526  -5.163 -32.596  0.00  0.00    +0.000 A 
ATOM      3  C   UNL     1     -45.017  -6.464 -32.480  0.00  0.00    +0.000 A 
ATOM      4  C   UNL     1     -45.248  -7.388 -33.503  0.00  0.00    +0.000 A 
ATOM      5  C   UNL     1     -44.769  -8.703 -33.424  0.00  0.00    +0.000 A 
ATOM      6  C   UNL     1     -45.014  -9.601 -34.468  0.00  0.00    +0.000 A 
ATOM      7  C   UNL     1     -45.739  -9.188 -35.591  0.00  0.00    +0.000 A 
ATOM      8  C   UNL     1     -46.222  -7.879 -35.675  0.00  0.00    +0.000 A 
ATOM      9  C   UNL     1     -45.981  -6.976 -34.635  0.00  0.00    +0.000 A 
ATOM     10  O   UNL     1     -46.448  -5.734 -34.717  0.00  0.00    +0.000 OA
ATOM     11  C   UNL     1     -46.256  -4.830 -33.760  0.00  0.00    +0.000 A 
ATOM     12  O   UNL     1     -46.739  -3.676 -33.907  0.00  0.00    +0.000 OA
BRANCH   3  13
ATOM     13  O   UNL     1     -44.291  -6.834 -31.349  0.00  0.00    +0.000 OA
ATOM     14  H   UNL     1     -43.824  -7.646 -31.337  0.00  0.00    +0.000 HD
ENDBRANCH   3  13
ENDBRANCH   1   2
BRANCH   1  18
ATOM     15  C   UNL     1     -42.311  -1.188 -32.515  0.00  0.00    +0.000 A 
ATOM     16  C   UNL     1     -43.637  -0.815 -32.269  0.00  0.00    +0.000 A 
ATOM     17  C   UNL     1     -44.601  -1.770 -31.945  0.00  0.00    +0.000 A 
ATOM     18  C   UNL     1     -44.255  -3.124 -31.870  0.00  0.00    +0.000 A 
ATOM     19  C   UNL     1     -42.935  -3.508 -32.116  0.00  0.00    +0.000 A 
ATOM     20  C   UNL     1     -41.962  -2.556 -32.437  0.00  0.00    +0.000 A 
BRANCH  20  21
ATOM     21  O   UNL     1     -40.662  -2.992 -32.662  0.00  0.00    +0.000 OA
ATOM     22  H   UNL     1     -40.094  -3.166 -31.938  0.00  0.00    +0.000 HD
ENDBRANCH  20  21
BRANCH  15  24
ATOM     23  C   UNL     1     -40.395   0.315 -31.947  0.00  0.00    +0.000 C 
ATOM     24  O   UNL     1     -41.401  -0.167 -32.827  0.00  0.00    +0.000 OA
ENDBRANCH  15  24
ENDBRANCH   1  18
BRANCH   1  25
ATOM     25  C   UNL     1     -46.539  -3.613 -30.862  0.00  0.00    +0.000 C 
BRANCH  25  26
ATOM     26  C   UNL     1     -46.890  -4.351 -29.615  0.00  0.00    +0.000 C 
ATOM     27  O   UNL     1     -47.756  -3.875 -28.835  0.00  0.00    +0.000 OA
ATOM     28  N   UNL     1     -46.248  -5.591 -29.318  0.00  0.00    +0.000 N 
ATOM     29  H   UNL     1     -45.511  -5.893 -29.895  0.00  0.00    +0.000 HD
BRANCH  28  30
ATOM     30  C   UNL     1     -46.644  -6.423 -28.194  0.00  0.00    +0.000 C 
BRANCH  30  31
ATOM     31  C   UNL     1     -46.791  -7.832 -28.649  0.00  0.00    +0.000 A 
ATOM     32  C   UNL     1     -47.162  -8.099 -29.986  0.00  0.00    +0.000 A 
ATOM     33  C   UNL     1     -47.282  -9.423 -30.444  0.00  0.00    +0.000 A 
ATOM     34  C   UNL     1     -47.016 -10.443 -29.534  0.00  0.00    +0.000 A 
ATOM     35  C   UNL     1     -46.654 -10.188 -28.250  0.00  0.00    +0.000 A 
ATOM     36  C   UNL     1     -46.523  -8.890 -27.762  0.00  0.00    +0.000 A 
ATOM     37  O   UNL     1     -46.460 -11.382 -27.583  0.00  0.00    +0.000 OA
ATOM     38  C   UNL     1     -46.720 -12.454 -28.501  0.00  0.00    +0.000 C 
ATOM     39  O   UNL     1     -47.068 -11.808 -29.735  0.00  0.00    +0.000 OA
ENDBRANCH  30  31
ENDBRANCH  28  30
ENDBRANCH  25  26
ENDBRANCH   1  25
TORSDOF 9
ENDMDL
MODEL 3
REMARK VINA RESULT:      -7.3      1.665      5.344
REMARK  Name = ZINC000253471169 PubChem-124891265
REMARK  9 active torsions:
REMARK  status: ('A' for Active; 'I' for Inactive)
REMARK    1  A    between atoms: C_1  and  C_2
REMARK    2  A    between atoms: C_1  and  C_18
REMARK    3  A    between atoms: C_1  and  C_25
REMARK    4  A    between atoms: C_3  and  O_4
REMARK    5  A    between atoms: C_15  and  O_24
REMARK    6  A    between atoms: C_20  and  O_21
REMARK    7  A    between atoms: C_25  and  C_26
REMARK    8  A    between atoms: N_28  and  C_30
REMARK    9  A    between atoms: C_30  and  C_31
REMARK                            x       y       z     vdW  Elec       q    Type
REMARK                         _______ _______ _______ _____ _____    ______ ____
ROOT
ATOM      1  C   UNL     1     -45.277  -4.759 -31.702  0.00  0.00    +0.000 C 
ENDROOT
BRANCH   1   2
ATOM      2  C   UNL     1     -45.597  -5.078 -30.264  0.00  0.00    +0.000 A 
ATOM      3  C   UNL     1     -44.677  -5.823 -29.514  0.00  0.00    +0.000 A 
ATOM      4  C   UNL     1     -44.966  -6.136 -28.182  0.00  0.00    +0.000 A 
ATOM      5  C   UNL     1     -44.070  -6.868 -27.391  0.00  0.00    +0.000 A 
ATOM      6  C   UNL     1     -44.393  -7.167 -26.063  0.00  0.00    +0.000 A 
ATOM      7  C   UNL     1     -45.610  -6.734 -25.523  0.00  0.00    +0.000 A 
ATOM      8  C   UNL     1     -46.506  -6.001 -26.307  0.00  0.00    +0.000 A 
ATOM      9  C   UNL     1     -46.190  -5.698 -27.635  0.00  0.00    +0.000 A 
ATOM     10  O   UNL     1     -47.043  -4.996 -28.373  0.00  0.00    +0.000 OA
ATOM     11  C   UNL     1     -46.799  -4.673 -29.641  0.00  0.00    +0.000 A 
ATOM     12  O   UNL     1     -47.653  -3.995 -30.272  0.00  0.00    +0.000 OA
BRANCH   3  13
ATOM     13  O   UNL     1     -43.480  -6.245 -30.091  0.00  0.00    +0.000 OA
ATOM     14  H   UNL     1     -42.669  -6.101 -29.644  0.00  0.00    +0.000 HD
ENDBRANCH   3  13
ENDBRANCH   1   2
BRANCH   1  18
ATOM     15  C   UNL     1     -42.723  -1.308 -32.187  0.00  0.00    +0.000 A 
ATOM     16  C   UNL     1     -42.223  -2.594 -32.419  0.00  0.00    +0.000 A 
ATOM     17  C   UNL     1     -43.035  -3.717 -32.258  0.00  0.00    +0.000 A 
ATOM     18  C   UNL     1     -44.366  -3.573 -31.852  0.00  0.00    +0.000 A 
ATOM     19  C   UNL     1     -44.875  -2.295 -31.614  0.00  0.00    +0.000 A 
ATOM     20  C   UNL     1     -44.069  -1.163 -31.777  0.00  0.00    +0.000 A 
BRANCH  20  21
ATOM     21  O   UNL     1     -44.629   0.086 -31.537  0.00  0.00    +0.000 OA
ATOM     22  H   UNL     1     -44.479   0.789 -32.138  0.00  0.00    +0.000 HD
ENDBRANCH  20  21
BRANCH  15  24
ATOM     23  C   UNL     1     -40.432  -0.344 -32.461  0.00  0.00    +0.000 C 
ATOM     24  O   UNL     1     -41.845  -0.230 -32.378  0.00  0.00    +0.000 OA
ENDBRANCH  15  24
ENDBRANCH   1  18
BRANCH   1  25
ATOM     25  C   UNL     1     -44.841  -5.984 -32.509  0.00  0.00    +0.000 C 
BRANCH  25  26
ATOM     26  C   UNL     1     -45.840  -7.085 -32.393  0.00  0.00    +0.000 C 
ATOM     27  O   UNL     1     -47.017  -6.900 -32.798  0.00  0.00    +0.000 OA
ATOM     28  N   UNL     1     -45.453  -8.339 -31.830  0.00  0.00    +0.000 N 
ATOM     29  H   UNL     1     -44.556  -8.426 -31.438  0.00  0.00    +0.000 HD
BRANCH  28  30
ATOM     30  C   UNL     1     -46.338  -9.492 -31.816  0.00  0.00    +0.000 C 
BRANCH  30  31
ATOM     31  C   UNL     1     -46.418 -10.037 -30.434  0.00  0.00    +0.000 A 
ATOM     32  C   UNL     1     -46.604  -9.156 -29.345  0.00  0.00    +0.000 A 
ATOM     33  C   UNL     1     -46.708  -9.653 -28.034  0.00  0.00    +0.000 A 
ATOM     34  C   UNL     1     -46.626 -11.032 -27.862  0.00  0.00    +0.000 A 
ATOM     35  C   UNL     1     -46.452 -11.880 -28.907  0.00  0.00    +0.000 A 
ATOM     36  C   UNL     1     -46.347 -11.426 -30.219  0.00  0.00    +0.000 A 
ATOM     37  O   UNL     1     -46.402 -13.179 -28.441  0.00  0.00    +0.000 OA
ATOM     38  C   UNL     1     -46.549 -13.146 -27.013  0.00  0.00    +0.000 C 
ATOM     39  O   UNL     1     -46.692 -11.756 -26.687  0.00  0.00    +0.000 OA
ENDBRANCH  30  31
ENDBRANCH  28  30
ENDBRANCH  25  26
ENDBRANCH   1  25
TORSDOF 9
ENDMDL
