MODEL 1
REMARK VINA RESULT:      -6.1      0.000      0.000
REMARK  Name = ZINC000032760773
REMARK  3 active torsions:
REMARK  status: ('A' for Active; 'I' for Inactive)
REMARK    1  A    between atoms: N_2  and  C_17
REMARK    2  A    between atoms: C_3  and  C_5
REMARK    3  A    between atoms: C_17  and  C_18
REMARK                            x       y       z     vdW  Elec       q    Type
REMARK                         _______ _______ _______ _____ _____    ______ ____
ROOT
ATOM      1  C   UNL     1     -44.137 -19.570 -26.618  0.00  0.00    +0.000 C 
ATOM      2  N   UNL     1     -44.167 -18.597 -25.534  0.00  0.00    +0.000 N 
ATOM      3  C   UNL     1     -45.398 -18.370 -24.821  0.00  0.00    +0.000 C 
ATOM      4  O   UNL     1     -46.391 -19.113 -25.055  0.00  0.00    +0.000 OA
ENDROOT
BRANCH   3   5
ATOM      5  C   UNL     1     -45.540 -17.271 -23.832  0.00  0.00    +0.000 A 
ATOM      6  C   UNL     1     -45.778 -15.972 -24.295  0.00  0.00    +0.000 A 
ATOM      7  C   UNL     1     -45.948 -14.921 -23.395  0.00  0.00    +0.000 A 
ATOM      8  O   UNL     1     -46.156 -13.756 -23.822  0.00  0.00    +0.000 OA
ATOM      9  N   UNL     1     -45.889 -15.152 -22.058  0.00  0.00    +0.000 N 
ATOM     10  C   UNL     1     -45.665 -16.396 -21.560  0.00  0.00    +0.000 A 
ATOM     11  C   UNL     1     -45.608 -16.586 -20.175  0.00  0.00    +0.000 A 
ATOM     12  C   UNL     1     -45.367 -17.858 -19.651  0.00  0.00    +0.000 A 
ATOM     13  C   UNL     1     -45.182 -18.945 -20.508  0.00  0.00    +0.000 A 
ATOM     14  C   UNL     1     -45.239 -18.764 -21.892  0.00  0.00    +0.000 A 
ATOM     15  C   UNL     1     -45.486 -17.494 -22.437  0.00  0.00    +0.000 A 
ATOM     16  H   UNL     1     -46.012 -14.400 -21.435  0.00  0.00    +0.000 HD
ENDBRANCH   3   5
BRANCH   2  17
ATOM     17  C   UNL     1     -42.897 -18.087 -25.024  0.00  0.00    +0.000 C 
BRANCH  17  18
ATOM     18  C   UNL     1     -42.431 -18.885 -23.851  0.00  0.00    +0.000 A 
ATOM     19  C   UNL     1     -41.869 -18.245 -22.740  0.00  0.00    +0.000 A 
ATOM     20  C   UNL     1     -41.420 -18.996 -21.650  0.00  0.00    +0.000 A 
ATOM     21  C   UNL     1     -41.529 -20.390 -21.669  0.00  0.00    +0.000 A 
ATOM     22  F   UNL     1     -41.093 -21.114 -20.610  0.00  0.00    +0.000 F 
ATOM     23  C   UNL     1     -42.087 -21.033 -22.781  0.00  0.00    +0.000 A 
ATOM     24  F   UNL     1     -42.194 -22.384 -22.808  0.00  0.00    +0.000 F 
ATOM     25  C   UNL     1     -42.535 -20.280 -23.870  0.00  0.00    +0.000 A 
ENDBRANCH  17  18
ENDBRANCH   2  17
TORSDOF 3
ENDMDL
MODEL 2
REMARK VINA RESULT:      -5.9      2.491      5.523
REMARK  Name = ZINC000032760773
REMARK  3 active torsions:
REMARK  status: ('A' for Active; 'I' for Inactive)
REMARK    1  A    between atoms: N_2  and  C_17
REMARK    2  A    between atoms: C_3  and  C_5
REMARK    3  A    between atoms: C_17  and  C_18
REMARK                            x       y       z     vdW  Elec       q    Type
REMARK                         _______ _______ _______ _____ _____    ______ ____
ROOT
ATOM      1  C   UNL     1     -46.169 -13.661 -22.158  0.00  0.00    +0.000 C 
ATOM      2  N   UNL     1     -45.496 -14.741 -22.869  0.00  0.00    +0.000 N 
ATOM      3  C   UNL     1     -45.789 -14.962 -24.262  0.00  0.00    +0.000 C 
ATOM      4  O   UNL     1     -46.517 -14.134 -24.877  0.00  0.00    +0.000 OA
ENDROOT
BRANCH   3   5
ATOM      5  C   UNL     1     -45.276 -16.149 -24.992  0.00  0.00    +0.000 A 
ATOM      6  C   UNL     1     -45.930 -17.376 -24.830  0.00  0.00    +0.000 A 
ATOM      7  C   UNL     1     -45.496 -18.505 -25.525  0.00  0.00    +0.000 A 
ATOM      8  O   UNL     1     -46.088 -19.604 -25.369  0.00  0.00    +0.000 OA
ATOM      9  N   UNL     1     -44.436 -18.420 -26.368  0.00  0.00    +0.000 N 
ATOM     10  C   UNL     1     -43.771 -17.252 -26.562  0.00  0.00    +0.000 A 
ATOM     11  C   UNL     1     -42.681 -17.213 -27.438  0.00  0.00    +0.000 A 
ATOM     12  C   UNL     1     -41.983 -16.019 -27.636  0.00  0.00    +0.000 A 
ATOM     13  C   UNL     1     -42.370 -14.860 -26.960  0.00  0.00    +0.000 A 
ATOM     14  C   UNL     1     -43.459 -14.890 -26.084  0.00  0.00    +0.000 A 
ATOM     15  C   UNL     1     -44.176 -16.079 -25.878  0.00  0.00    +0.000 A 
ATOM     16  H   UNL     1     -44.141 -19.226 -26.852  0.00  0.00    +0.000 HD
ENDBRANCH   3   5
BRANCH   2  17
ATOM     17  C   UNL     1     -44.352 -15.386 -22.229  0.00  0.00    +0.000 C 
BRANCH  17  18
ATOM     18  C   UNL     1     -44.774 -16.605 -21.477  0.00  0.00    +0.000 A 
ATOM     19  C   UNL     1     -44.172 -17.840 -21.739  0.00  0.00    +0.000 A 
ATOM     20  C   UNL     1     -44.580 -18.982 -21.043  0.00  0.00    +0.000 A 
ATOM     21  C   UNL     1     -45.594 -18.891 -20.085  0.00  0.00    +0.000 A 
ATOM     22  F   UNL     1     -45.986 -20.001 -19.413  0.00  0.00    +0.000 F 
ATOM     23  C   UNL     1     -46.201 -17.657 -19.823  0.00  0.00    +0.000 A 
ATOM     24  F   UNL     1     -47.186 -17.562 -18.896  0.00  0.00    +0.000 F 
ATOM     25  C   UNL     1     -45.792 -16.516 -20.520  0.00  0.00    +0.000 A 
ENDBRANCH  17  18
ENDBRANCH   2  17
TORSDOF 3
ENDMDL
MODEL 3
REMARK VINA RESULT:      -5.9     13.550     15.964
REMARK  Name = ZINC000032760773
REMARK  3 active torsions:
REMARK  status: ('A' for Active; 'I' for Inactive)
REMARK    1  A    between atoms: N_2  and  C_17
REMARK    2  A    between atoms: C_3  and  C_5
REMARK    3  A    between atoms: C_17  and  C_18
REMARK                            x       y       z     vdW  Elec       q    Type
REMARK                         _______ _______ _______ _____ _____    ______ ____
ROOT
ATOM      1  C   UNL     1     -41.439  -5.672 -31.318  0.00  0.00    +0.000 C 
ATOM      2  N   UNL     1     -42.872  -5.810 -31.087  0.00  0.00    +0.000 N 
ATOM      3  C   UNL     1     -43.359  -5.970 -29.741  0.00  0.00    +0.000 C 
ATOM      4  O   UNL     1     -42.554  -5.851 -28.776  0.00  0.00    +0.000 OA
ENDROOT
BRANCH   3   5
ATOM      5  C   UNL     1     -44.781  -6.292 -29.456  0.00  0.00    +0.000 A 
ATOM      6  C   UNL     1     -45.643  -5.260 -29.067  0.00  0.00    +0.000 A 
ATOM      7  C   UNL     1     -46.991  -5.521 -28.822  0.00  0.00    +0.000 A 
ATOM      8  O   UNL     1     -47.756  -4.587 -28.468  0.00  0.00    +0.000 OA
ATOM      9  N   UNL     1     -47.479  -6.779 -28.965  0.00  0.00    +0.000 N 
ATOM     10  C   UNL     1     -46.684  -7.812 -29.345  0.00  0.00    +0.000 A 
ATOM     11  C   UNL     1     -47.230  -9.094 -29.475  0.00  0.00    +0.000 A 
ATOM     12  C   UNL     1     -46.419 -10.167 -29.854  0.00  0.00    +0.000 A 
ATOM     13  C   UNL     1     -45.060  -9.964 -30.104  0.00  0.00    +0.000 A 
ATOM     14  C   UNL     1     -44.507  -8.687 -29.978  0.00  0.00    +0.000 A 
ATOM     15  C   UNL     1     -45.308  -7.596 -29.604  0.00  0.00    +0.000 A 
ATOM     16  H   UNL     1     -48.434  -6.947 -28.790  0.00  0.00    +0.000 HD
ENDBRANCH   3   5
BRANCH   2  17
ATOM     17  C   UNL     1     -43.784  -5.507 -32.187  0.00  0.00    +0.000 C 
BRANCH  17  18
ATOM     18  C   UNL     1     -43.821  -4.040 -32.466  0.00  0.00    +0.000 A 
ATOM     19  C   UNL     1     -43.132  -3.511 -33.563  0.00  0.00    +0.000 A 
ATOM     20  C   UNL     1     -43.158  -2.136 -33.811  0.00  0.00    +0.000 A 
ATOM     21  C   UNL     1     -43.870  -1.285 -32.961  0.00  0.00    +0.000 A 
ATOM     22  F   UNL     1     -43.892   0.047 -33.206  0.00  0.00    +0.000 F 
ATOM     23  C   UNL     1     -44.557  -1.811 -31.859  0.00  0.00    +0.000 A 
ATOM     24  F   UNL     1     -45.248  -0.992 -31.029  0.00  0.00    +0.000 F 
ATOM     25  C   UNL     1     -44.530  -3.187 -31.613  0.00  0.00    +0.000 A 
ENDBRANCH  17  18
ENDBRANCH   2  17
TORSDOF 3
ENDMDL
