MODEL 1
REMARK VINA RESULT:      -6.5      0.000      0.000
REMARK  Name = ZINC000009380298 ZINC09380298 MolPort-002-580-065 PubChem-1960546
REMARK  4 active torsions:
REMARK  status: ('A' for Active; 'I' for Inactive)
REMARK    1  A    between atoms: N_1  and  C_29
REMARK    2  A    between atoms: C_8  and  C_12
REMARK    3  A    between atoms: C_25  and  O_32
REMARK    4  A    between atoms: C_28  and  O_33
REMARK                            x       y       z     vdW  Elec       q    Type
REMARK                         _______ _______ _______ _____ _____    ______ ____
ROOT
ATOM      1  N   UNL     1     -45.850  -6.282 -30.992  0.00  0.00    +0.000 N 
ATOM      2  C   UNL     1     -46.793  -7.161 -31.648  0.00  0.00    +0.000 C 
ATOM      3  S   UNL     1     -47.607  -8.323 -30.826  0.00  0.00    +0.000 S 
ATOM      4  N   UNL     1     -46.987  -7.072 -33.061  0.00  0.00    +0.000 N 
ATOM      5  C   UNL     1     -46.187  -6.215 -33.873  0.00  0.00    +0.000 C 
ATOM      6  O   UNL     1     -46.387  -6.180 -35.117  0.00  0.00    +0.000 OA
ATOM      7  C   UNL     1     -45.119  -5.410 -33.256  0.00  0.00    +0.000 C 
ATOM      8  C   UNL     1     -44.235  -4.789 -34.058  0.00  0.00    +0.000 C 
ATOM      9  C   UNL     1     -45.113  -5.323 -31.775  0.00  0.00    +0.000 C 
ATOM     10  O   UNL     1     -44.535  -4.360 -31.197  0.00  0.00    +0.000 OA
ATOM     11  H   UNL     1     -47.691  -7.616 -33.483  0.00  0.00    +0.000 HD
ENDROOT
BRANCH   8  12
ATOM     12  C   UNL     1     -43.002  -4.085 -33.664  0.00  0.00    +0.000 A 
ATOM     13  C   UNL     1     -41.767  -4.747 -33.606  0.00  0.00    +0.000 A 
ATOM     14  C   UNL     1     -40.601  -4.047 -33.287  0.00  0.00    +0.000 A 
ATOM     15  C   UNL     1     -40.661  -2.658 -33.070  0.00  0.00    +0.000 A 
ATOM     16  N   UNL     1     -39.467  -1.934 -32.724  0.00  0.00    +0.000 N 
ATOM     17  C   UNL     1     -39.560  -0.559 -32.249  0.00  0.00    +0.000 C 
ATOM     18  C   UNL     1     -40.614   0.191 -33.058  0.00  0.00    +0.000 C 
ATOM     19  C   UNL     1     -41.976  -0.499 -32.935  0.00  0.00    +0.000 C 
ATOM     20  C   UNL     1     -41.890  -1.983 -33.171  0.00  0.00    +0.000 A 
ATOM     21  C   UNL     1     -43.052  -2.700 -33.469  0.00  0.00    +0.000 A 
ATOM     22  C   UNL     1     -38.159  -2.576 -32.822  0.00  0.00    +0.000 C 
ATOM     23  C   UNL     1     -38.263  -4.034 -32.382  0.00  0.00    +0.000 C 
ATOM     24  C   UNL     1     -39.285  -4.768 -33.253  0.00  0.00    +0.000 C 
ENDBRANCH   8  12
BRANCH   1  29
ATOM     25  C   UNL     1     -46.368  -5.554 -27.350  0.00  0.00    +0.000 A 
ATOM     26  C   UNL     1     -45.320  -6.281 -26.781  0.00  0.00    +0.000 A 
ATOM     27  C   UNL     1     -44.449  -7.013 -27.590  0.00  0.00    +0.000 A 
ATOM     28  C   UNL     1     -44.616  -7.030 -28.984  0.00  0.00    +0.000 A 
ATOM     29  C   UNL     1     -45.673  -6.304 -29.563  0.00  0.00    +0.000 A 
ATOM     30  C   UNL     1     -46.538  -5.567 -28.742  0.00  0.00    +0.000 A 
BRANCH  25  32
ATOM     31  C   UNL     1     -47.304  -3.413 -26.538  0.00  0.00    +0.000 C 
ATOM     32  O   UNL     1     -47.224  -4.831 -26.514  0.00  0.00    +0.000 OA
ENDBRANCH  25  32
BRANCH  28  33
ATOM     33  O   UNL     1     -43.752  -7.764 -29.806  0.00  0.00    +0.000 OA
ATOM     34  C   UNL     1     -42.443  -7.322 -30.139  0.00  0.00    +0.000 C 
ENDBRANCH  28  33
ENDBRANCH   1  29
TORSDOF 4
ENDMDL
MODEL 2
REMARK VINA RESULT:      -6.4      1.697      2.783
REMARK  Name = ZINC000009380298 ZINC09380298 MolPort-002-580-065 PubChem-1960546
REMARK  4 active torsions:
REMARK  status: ('A' for Active; 'I' for Inactive)
REMARK    1  A    between atoms: N_1  and  C_29
REMARK    2  A    between atoms: C_8  and  C_12
REMARK    3  A    between atoms: C_25  and  O_32
REMARK    4  A    between atoms: C_28  and  O_33
REMARK                            x       y       z     vdW  Elec       q    Type
REMARK                         _______ _______ _______ _____ _____    ______ ____
ROOT
ATOM      1  N   UNL     1     -45.324  -5.621 -31.027  0.00  0.00    +0.000 N 
ATOM      2  C   UNL     1     -46.652  -5.923 -31.513  0.00  0.00    +0.000 C 
ATOM      3  S   UNL     1     -47.436  -7.299 -31.088  0.00  0.00    +0.000 S 
ATOM      4  N   UNL     1     -47.289  -5.043 -32.441  0.00  0.00    +0.000 N 
ATOM      5  C   UNL     1     -46.605  -3.923 -33.000  0.00  0.00    +0.000 C 
ATOM      6  O   UNL     1     -47.206  -3.182 -33.824  0.00  0.00    +0.000 OA
ATOM      7  C   UNL     1     -45.201  -3.667 -32.635  0.00  0.00    +0.000 C 
ATOM      8  C   UNL     1     -44.510  -2.752 -33.338  0.00  0.00    +0.000 C 
ATOM      9  C   UNL     1     -44.655  -4.430 -31.486  0.00  0.00    +0.000 C 
ATOM     10  O   UNL     1     -43.655  -3.995 -30.851  0.00  0.00    +0.000 OA
ATOM     11  H   UNL     1     -48.224  -5.214 -32.700  0.00  0.00    +0.000 HD
ENDROOT
BRANCH   8  12
ATOM     12  C   UNL     1     -43.067  -2.462 -33.264  0.00  0.00    +0.000 A 
ATOM     13  C   UNL     1     -42.586  -1.286 -32.668  0.00  0.00    +0.000 A 
ATOM     14  C   UNL     1     -41.213  -1.058 -32.557  0.00  0.00    +0.000 A 
ATOM     15  C   UNL     1     -40.306  -2.038 -33.001  0.00  0.00    +0.000 A 
ATOM     16  N   UNL     1     -38.890  -1.803 -32.904  0.00  0.00    +0.000 N 
ATOM     17  C   UNL     1     -37.955  -2.688 -33.589  0.00  0.00    +0.000 C 
ATOM     18  C   UNL     1     -38.427  -4.132 -33.455  0.00  0.00    +0.000 C 
ATOM     19  C   UNL     1     -39.831  -4.294 -34.046  0.00  0.00    +0.000 C 
ATOM     20  C   UNL     1     -40.785  -3.238 -33.558  0.00  0.00    +0.000 A 
ATOM     21  C   UNL     1     -42.161  -3.442 -33.684  0.00  0.00    +0.000 A 
ATOM     22  C   UNL     1     -38.381  -0.666 -32.143  0.00  0.00    +0.000 C 
ATOM     23  C   UNL     1     -39.294   0.541 -32.340  0.00  0.00    +0.000 C 
ATOM     24  C   UNL     1     -40.716   0.195 -31.895  0.00  0.00    +0.000 C 
ENDBRANCH   8  12
BRANCH   1  29
ATOM     25  C   UNL     1     -44.294  -7.040 -27.711  0.00  0.00    +0.000 A 
ATOM     26  C   UNL     1     -43.387  -8.023 -28.112  0.00  0.00    +0.000 A 
ATOM     27  C   UNL     1     -43.119  -8.225 -29.468  0.00  0.00    +0.000 A 
ATOM     28  C   UNL     1     -43.758  -7.445 -30.445  0.00  0.00    +0.000 A 
ATOM     29  C   UNL     1     -44.676  -6.454 -30.047  0.00  0.00    +0.000 A 
ATOM     30  C   UNL     1     -44.933  -6.256 -28.683  0.00  0.00    +0.000 A 
BRANCH  25  32
ATOM     31  C   UNL     1     -43.836  -7.570 -25.339  0.00  0.00    +0.000 C 
ATOM     32  O   UNL     1     -44.542  -6.861 -26.347  0.00  0.00    +0.000 OA
ENDBRANCH  25  32
BRANCH  28  33
ATOM     33  O   UNL     1     -43.502  -7.640 -31.807  0.00  0.00    +0.000 OA
ATOM     34  C   UNL     1     -42.329  -7.156 -32.448  0.00  0.00    +0.000 C 
ENDBRANCH  28  33
ENDBRANCH   1  29
TORSDOF 4
ENDMDL
MODEL 3
REMARK VINA RESULT:      -6.4      3.750      6.787
REMARK  Name = ZINC000009380298 ZINC09380298 MolPort-002-580-065 PubChem-1960546
REMARK  4 active torsions:
REMARK  status: ('A' for Active; 'I' for Inactive)
REMARK    1  A    between atoms: N_1  and  C_29
REMARK    2  A    between atoms: C_8  and  C_12
REMARK    3  A    between atoms: C_25  and  O_32
REMARK    4  A    between atoms: C_28  and  O_33
REMARK                            x       y       z     vdW  Elec       q    Type
REMARK                         _______ _______ _______ _____ _____    ______ ____
ROOT
ATOM      1  N   UNL     1     -45.354  -6.019 -32.125  0.00  0.00    +0.000 N 
ATOM      2  C   UNL     1     -45.309  -6.906 -30.983  0.00  0.00    +0.000 C 
ATOM      3  S   UNL     1     -44.770  -6.401 -29.519  0.00  0.00    +0.000 S 
ATOM      4  N   UNL     1     -45.679  -8.277 -31.130  0.00  0.00    +0.000 N 
ATOM      5  C   UNL     1     -45.984  -8.838 -32.406  0.00  0.00    +0.000 C 
ATOM      6  O   UNL     1     -46.294 -10.057 -32.487  0.00  0.00    +0.000 OA
ATOM      7  C   UNL     1     -45.901  -7.996 -33.613  0.00  0.00    +0.000 C 
ATOM      8  C   UNL     1     -45.967  -8.590 -34.818  0.00  0.00    +0.000 C 
ATOM      9  C   UNL     1     -45.773  -6.533 -33.405  0.00  0.00    +0.000 C 
ATOM     10  O   UNL     1     -46.113  -5.729 -34.317  0.00  0.00    +0.000 OA
ATOM     11  H   UNL     1     -45.726  -8.850 -30.330  0.00  0.00    +0.000 HD
ENDROOT
BRANCH   8  12
ATOM     12  C   UNL     1     -45.735  -7.977 -36.138  0.00  0.00    +0.000 A 
ATOM     13  C   UNL     1     -46.789  -7.438 -36.891  0.00  0.00    +0.000 A 
ATOM     14  C   UNL     1     -46.538  -6.810 -38.112  0.00  0.00    +0.000 A 
ATOM     15  C   UNL     1     -45.214  -6.676 -38.567  0.00  0.00    +0.000 A 
ATOM     16  N   UNL     1     -44.950  -6.045 -39.833  0.00  0.00    +0.000 N 
ATOM     17  C   UNL     1     -43.621  -6.129 -40.427  0.00  0.00    +0.000 C 
ATOM     18  C   UNL     1     -42.564  -5.966 -39.340  0.00  0.00    +0.000 C 
ATOM     19  C   UNL     1     -42.728  -7.047 -38.267  0.00  0.00    +0.000 C 
ATOM     20  C   UNL     1     -44.150  -7.175 -37.794  0.00  0.00    +0.000 A 
ATOM     21  C   UNL     1     -44.418  -7.821 -36.584  0.00  0.00    +0.000 A 
ATOM     22  C   UNL     1     -46.013  -5.338 -40.542  0.00  0.00    +0.000 C 
ATOM     23  C   UNL     1     -47.333  -6.088 -40.378  0.00  0.00    +0.000 C 
ATOM     24  C   UNL     1     -47.676  -6.218 -38.893  0.00  0.00    +0.000 C 
ENDBRANCH   8  12
BRANCH   1  29
ATOM     25  C   UNL     1     -43.417  -2.807 -32.136  0.00  0.00    +0.000 A 
ATOM     26  C   UNL     1     -44.395  -1.905 -31.714  0.00  0.00    +0.000 A 
ATOM     27  C   UNL     1     -45.689  -2.347 -31.433  0.00  0.00    +0.000 A 
ATOM     28  C   UNL     1     -46.025  -3.704 -31.572  0.00  0.00    +0.000 A 
ATOM     29  C   UNL     1     -45.044  -4.618 -32.001  0.00  0.00    +0.000 A 
ATOM     30  C   UNL     1     -43.746  -4.164 -32.274  0.00  0.00    +0.000 A 
BRANCH  25  32
ATOM     31  C   UNL     1     -41.816  -0.950 -32.463  0.00  0.00    +0.000 C 
ATOM     32  O   UNL     1     -42.131  -2.334 -32.411  0.00  0.00    +0.000 OA
ENDBRANCH  25  32
BRANCH  28  33
ATOM     33  O   UNL     1     -47.319  -4.160 -31.297  0.00  0.00    +0.000 OA
ATOM     34  C   UNL     1     -47.756  -4.499 -29.988  0.00  0.00    +0.000 C 
ENDBRANCH  28  33
ENDBRANCH   1  29
TORSDOF 4
ENDMDL
