MODEL 1
REMARK VINA RESULT:      -6.7      0.000      0.000
REMARK  Name = ZINC000009305088 CHEMBL1468769 CSC026749162 MCULE-2734999692 MolPort-000-208-662 PubChem-1077467
REMARK  6 active torsions:
REMARK  status: ('A' for Active; 'I' for Inactive)
REMARK    1  A    between atoms: N_3  and  C_27
REMARK    2  A    between atoms: C_7  and  C_18
REMARK    3  A    between atoms: N_20  and  C_22
REMARK    4  A    between atoms: C_27  and  C_28
REMARK    5  A    between atoms: C_28  and  C_29
REMARK    6  A    between atoms: C_29  and  N_30
REMARK                            x       y       z     vdW  Elec       q    Type
REMARK                         _______ _______ _______ _____ _____    ______ ____
ROOT
ATOM      1  N   UNL     1     -47.637  -7.743 -29.166  0.00  0.00    +0.000 NA
ATOM      2  C   UNL     1     -46.928  -7.066 -30.013  0.00  0.00    +0.000 A 
ATOM      3  N   UNL     1     -46.796  -5.706 -29.856  0.00  0.00    +0.000 N 
ATOM      4  C   UNL     1     -46.078  -4.958 -30.753  0.00  0.00    +0.000 A 
ATOM      5  C   UNL     1     -45.448  -5.575 -31.844  0.00  0.00    +0.000 A 
ATOM      6  C   UNL     1     -45.563  -6.952 -32.004  0.00  0.00    +0.000 A 
ATOM      7  C   UNL     1     -46.298  -7.723 -31.099  0.00  0.00    +0.000 A 
ATOM      8  C   UNL     1     -44.714  -4.787 -32.742  0.00  0.00    +0.000 A 
ATOM      9  O   UNL     1     -44.139  -5.330 -33.730  0.00  0.00    +0.000 OA
ATOM     10  N   UNL     1     -44.623  -3.435 -32.546  0.00  0.00    +0.000 N 
ATOM     11  C   UNL     1     -43.907  -2.665 -33.420  0.00  0.00    +0.000 A 
ATOM     12  C   UNL     1     -43.801  -1.284 -33.237  0.00  0.00    +0.000 A 
ATOM     13  C   UNL     1     -44.435  -0.689 -32.149  0.00  0.00    +0.000 A 
ATOM     14  C   UNL     1     -45.166  -1.474 -31.259  0.00  0.00    +0.000 A 
ATOM     15  C   UNL     1     -45.253  -2.852 -31.468  0.00  0.00    +0.000 A 
ATOM     16  N   UNL     1     -45.965  -3.611 -30.598  0.00  0.00    +0.000 NA
ATOM     17  H   UNL     1     -48.073  -7.285 -28.411  0.00  0.00    +0.000 HD
ENDROOT
BRANCH   7  18
ATOM     18  C   UNL     1     -46.369  -9.190 -31.332  0.00  0.00    +0.000 C 
ATOM     19  O   UNL     1     -46.685  -9.624 -32.474  0.00  0.00    +0.000 OA
ATOM     20  N   UNL     1     -46.068 -10.122 -30.288  0.00  0.00    +0.000 N 
ATOM     21  H   UNL     1     -45.790  -9.771 -29.410  0.00  0.00    +0.000 HD
BRANCH  20  22
ATOM     22  C   UNL     1     -46.153 -11.564 -30.466  0.00  0.00    +0.000 C 
ATOM     23  C   UNL     1     -47.091 -12.163 -29.431  0.00  0.00    +0.000 C 
ATOM     24  C   UNL     1     -46.227 -12.950 -28.471  0.00  0.00    +0.000 C 
ATOM     25  C   UNL     1     -44.994 -13.321 -29.260  0.00  0.00    +0.000 C 
ATOM     26  C   UNL     1     -44.786 -12.180 -30.230  0.00  0.00    +0.000 C 
ENDBRANCH  20  22
ENDBRANCH   7  18
BRANCH   3  27
ATOM     27  C   UNL     1     -47.411  -5.041 -28.701  0.00  0.00    +0.000 C 
BRANCH  27  28
ATOM     28  C   UNL     1     -46.393  -4.863 -27.585  0.00  0.00    +0.000 C 
BRANCH  28  29
ATOM     29  C   UNL     1     -46.834  -5.619 -26.333  0.00  0.00    +0.000 C 
BRANCH  29  30
ATOM     30  N   UNL     1     -46.468  -7.040 -26.345  0.00  0.00    +0.000 NA
ATOM     31  C   UNL     1     -45.029  -7.253 -26.577  0.00  0.00    +0.000 C 
ATOM     32  C   UNL     1     -44.233  -7.275 -25.267  0.00  0.00    +0.000 C 
ATOM     33  O   UNL     1     -44.777  -8.230 -24.397  0.00  0.00    +0.000 OA
ATOM     34  C   UNL     1     -46.017  -7.717 -23.992  0.00  0.00    +0.000 C 
ATOM     35  C   UNL     1     -46.997  -7.751 -25.169  0.00  0.00    +0.000 C 
ENDBRANCH  29  30
ENDBRANCH  28  29
ENDBRANCH  27  28
ENDBRANCH   3  27
TORSDOF 6
ENDMDL
MODEL 2
REMARK VINA RESULT:      -6.6      3.356      9.112
REMARK  Name = ZINC000009305088 CHEMBL1468769 CSC026749162 MCULE-2734999692 MolPort-000-208-662 PubChem-1077467
REMARK  6 active torsions:
REMARK  status: ('A' for Active; 'I' for Inactive)
REMARK    1  A    between atoms: N_3  and  C_27
REMARK    2  A    between atoms: C_7  and  C_18
REMARK    3  A    between atoms: N_20  and  C_22
REMARK    4  A    between atoms: C_27  and  C_28
REMARK    5  A    between atoms: C_28  and  C_29
REMARK    6  A    between atoms: C_29  and  N_30
REMARK                            x       y       z     vdW  Elec       q    Type
REMARK                         _______ _______ _______ _____ _____    ______ ____
ROOT
ATOM      1  N   UNL     1     -46.563  -6.704 -34.821  0.00  0.00    +0.000 NA
ATOM      2  C   UNL     1     -46.583  -6.973 -33.553  0.00  0.00    +0.000 A 
ATOM      3  N   UNL     1     -46.573  -8.284 -33.136  0.00  0.00    +0.000 N 
ATOM      4  C   UNL     1     -46.624  -8.601 -31.803  0.00  0.00    +0.000 A 
ATOM      5  C   UNL     1     -46.670  -7.585 -30.836  0.00  0.00    +0.000 A 
ATOM      6  C   UNL     1     -46.667  -6.256 -31.248  0.00  0.00    +0.000 A 
ATOM      7  C   UNL     1     -46.622  -5.922 -32.604  0.00  0.00    +0.000 A 
ATOM      8  C   UNL     1     -46.715  -7.937 -29.479  0.00  0.00    +0.000 A 
ATOM      9  O   UNL     1     -46.756  -7.032 -28.597  0.00  0.00    +0.000 OA
ATOM     10  N   UNL     1     -46.714  -9.258 -29.118  0.00  0.00    +0.000 N 
ATOM     11  C   UNL     1     -46.755  -9.603 -27.795  0.00  0.00    +0.000 A 
ATOM     12  C   UNL     1     -46.754 -10.944 -27.405  0.00  0.00    +0.000 A 
ATOM     13  C   UNL     1     -46.709 -11.938 -28.379  0.00  0.00    +0.000 A 
ATOM     14  C   UNL     1     -46.667 -11.586 -29.727  0.00  0.00    +0.000 A 
ATOM     15  C   UNL     1     -46.670 -10.236 -30.086  0.00  0.00    +0.000 A 
ATOM     16  N   UNL     1     -46.628  -9.900 -31.399  0.00  0.00    +0.000 NA
ATOM     17  H   UNL     1     -46.536  -7.437 -35.479  0.00  0.00    +0.000 HD
ENDROOT
BRANCH   7  18
ATOM     18  C   UNL     1     -46.613  -4.480 -32.965  0.00  0.00    +0.000 C 
ATOM     19  O   UNL     1     -47.524  -4.019 -33.707  0.00  0.00    +0.000 OA
ATOM     20  N   UNL     1     -45.599  -3.599 -32.473  0.00  0.00    +0.000 N 
ATOM     21  H   UNL     1     -44.911  -3.964 -31.868  0.00  0.00    +0.000 HD
BRANCH  20  22
ATOM     22  C   UNL     1     -45.537  -2.188 -32.826  0.00  0.00    +0.000 C 
ATOM     23  C   UNL     1     -44.439  -1.953 -33.852  0.00  0.00    +0.000 C 
ATOM     24  C   UNL     1     -43.342  -1.193 -33.141  0.00  0.00    +0.000 C 
ATOM     25  C   UNL     1     -44.029  -0.474 -32.005  0.00  0.00    +0.000 C 
ATOM     26  C   UNL     1     -45.169  -1.379 -31.595  0.00  0.00    +0.000 C 
ENDBRANCH  20  22
ENDBRANCH   7  18
BRANCH   3  27
ATOM     27  C   UNL     1     -46.483  -9.365 -34.124  0.00  0.00    +0.000 C 
BRANCH  27  28
ATOM     28  C   UNL     1     -45.028  -9.707 -34.408  0.00  0.00    +0.000 C 
BRANCH  28  29
ATOM     29  C   UNL     1     -44.840 -11.221 -34.485  0.00  0.00    +0.000 C 
BRANCH  29  30
ATOM     30  N   UNL     1     -44.320 -11.684 -35.777  0.00  0.00    +0.000 NA
ATOM     31  C   UNL     1     -43.926 -13.103 -35.755  0.00  0.00    +0.000 C 
ATOM     32  C   UNL     1     -45.090 -14.028 -36.130  0.00  0.00    +0.000 C 
ATOM     33  O   UNL     1     -45.621 -13.644 -37.370  0.00  0.00    +0.000 OA
ATOM     34  C   UNL     1     -46.264 -12.419 -37.148  0.00  0.00    +0.000 C 
ATOM     35  C   UNL     1     -45.220 -11.328 -36.888  0.00  0.00    +0.000 C 
ENDBRANCH  29  30
ENDBRANCH  28  29
ENDBRANCH  27  28
ENDBRANCH   3  27
TORSDOF 6
ENDMDL
MODEL 3
REMARK VINA RESULT:      -6.6      1.736      5.980
REMARK  Name = ZINC000009305088 CHEMBL1468769 CSC026749162 MCULE-2734999692 MolPort-000-208-662 PubChem-1077467
REMARK  6 active torsions:
REMARK  status: ('A' for Active; 'I' for Inactive)
REMARK    1  A    between atoms: N_3  and  C_27
REMARK    2  A    between atoms: C_7  and  C_18
REMARK    3  A    between atoms: N_20  and  C_22
REMARK    4  A    between atoms: C_27  and  C_28
REMARK    5  A    between atoms: C_28  and  C_29
REMARK    6  A    between atoms: C_29  and  N_30
REMARK                            x       y       z     vdW  Elec       q    Type
REMARK                         _______ _______ _______ _____ _____    ______ ____
ROOT
ATOM      1  N   UNL     1     -46.492  -6.725 -31.767  0.00  0.00    +0.000 NA
ATOM      2  C   UNL     1     -46.545  -6.579 -30.480  0.00  0.00    +0.000 A 
ATOM      3  N   UNL     1     -46.842  -5.345 -29.948  0.00  0.00    +0.000 N 
ATOM      4  C   UNL     1     -46.876  -5.151 -28.591  0.00  0.00    +0.000 A 
ATOM      5  C   UNL     1     -46.623  -6.220 -27.718  0.00  0.00    +0.000 A 
ATOM      6  C   UNL     1     -46.335  -7.474 -28.246  0.00  0.00    +0.000 A 
ATOM      7  C   UNL     1     -46.292  -7.681 -29.628  0.00  0.00    +0.000 A 
ATOM      8  C   UNL     1     -46.671  -5.995 -26.334  0.00  0.00    +0.000 A 
ATOM      9  O   UNL     1     -46.446  -6.950 -25.536  0.00  0.00    +0.000 OA
ATOM     10  N   UNL     1     -46.961  -4.745 -25.856  0.00  0.00    +0.000 N 
ATOM     11  C   UNL     1     -47.010  -4.525 -24.508  0.00  0.00    +0.000 A 
ATOM     12  C   UNL     1     -47.304  -3.258 -24.000  0.00  0.00    +0.000 A 
ATOM     13  C   UNL     1     -47.551  -2.209 -24.882  0.00  0.00    +0.000 A 
ATOM     14  C   UNL     1     -47.500  -2.434 -26.256  0.00  0.00    +0.000 A 
ATOM     15  C   UNL     1     -47.203  -3.712 -26.734  0.00  0.00    +0.000 A 
ATOM     16  N   UNL     1     -47.156  -3.925 -28.073  0.00  0.00    +0.000 NA
ATOM     17  H   UNL     1     -46.669  -5.957 -32.358  0.00  0.00    +0.000 HD
ENDROOT
BRANCH   7  18
ATOM     18  C   UNL     1     -45.985  -9.052 -30.117  0.00  0.00    +0.000 C 
ATOM     19  O   UNL     1     -45.335  -9.199 -31.188  0.00  0.00    +0.000 OA
ATOM     20  N   UNL     1     -46.401 -10.209 -29.385  0.00  0.00    +0.000 N 
ATOM     21  H   UNL     1     -46.879 -10.081 -28.533  0.00  0.00    +0.000 HD
BRANCH  20  22
ATOM     22  C   UNL     1     -46.147 -11.567 -29.843  0.00  0.00    +0.000 C 
ATOM     23  C   UNL     1     -47.159 -12.523 -29.230  0.00  0.00    +0.000 C 
ATOM     24  C   UNL     1     -46.402 -13.372 -28.234  0.00  0.00    +0.000 C 
ATOM     25  C   UNL     1     -44.970 -13.363 -28.713  0.00  0.00    +0.000 C 
ATOM     26  C   UNL     1     -44.777 -12.011 -29.362  0.00  0.00    +0.000 C 
ENDBRANCH  20  22
ENDBRANCH   7  18
BRANCH   3  27
ATOM     27  C   UNL     1     -47.151  -4.220 -30.838  0.00  0.00    +0.000 C 
BRANCH  27  28
ATOM     28  C   UNL     1     -46.050  -3.172 -30.774  0.00  0.00    +0.000 C 
BRANCH  28  29
ATOM     29  C   UNL     1     -44.789  -3.678 -31.471  0.00  0.00    +0.000 C 
BRANCH  29  30
ATOM     30  N   UNL     1     -44.843  -3.574 -32.934  0.00  0.00    +0.000 NA
ATOM     31  C   UNL     1     -44.426  -2.249 -33.424  0.00  0.00    +0.000 C 
ATOM     32  C   UNL     1     -42.917  -2.183 -33.685  0.00  0.00    +0.000 C 
ATOM     33  O   UNL     1     -42.540  -3.214 -34.558  0.00  0.00    +0.000 OA
ATOM     34  C   UNL     1     -42.671  -4.402 -33.825  0.00  0.00    +0.000 C 
ATOM     35  C   UNL     1     -44.154  -4.700 -33.588  0.00  0.00    +0.000 C 
ENDBRANCH  29  30
ENDBRANCH  28  29
ENDBRANCH  27  28
ENDBRANCH   3  27
TORSDOF 6
ENDMDL
