MODEL 1
REMARK VINA RESULT:      -7.2      0.000      0.000
REMARK  Name = ZINC000021907259
REMARK  4 active torsions:
REMARK  status: ('A' for Active; 'I' for Inactive)
REMARK    1  A    between atoms: C_2  and  C_5
REMARK    2  A    between atoms: N_3  and  C_17
REMARK    3  A    between atoms: N_21  and  C_22
REMARK    4  A    between atoms: C_22  and  C_23
REMARK                            x       y       z     vdW  Elec       q    Type
REMARK                         _______ _______ _______ _____ _____    ______ ____
ROOT
ATOM      1  O   UNL     1     -45.158  -6.764 -28.176  0.00  0.00    +0.000 OA
ATOM      2  C   UNL     1     -46.332  -6.446 -27.845  0.00  0.00    +0.000 C 
ATOM      3  N   UNL     1     -47.343  -6.297 -28.853  0.00  0.00    +0.000 N 
ATOM      4  H   UNL     1     -48.239  -6.020 -28.553  0.00  0.00    +0.000 HD
ENDROOT
BRANCH   2   5
ATOM      5  C   UNL     1     -46.686  -6.223 -26.418  0.00  0.00    +0.000 A 
ATOM      6  C   UNL     1     -46.696  -7.337 -25.566  0.00  0.00    +0.000 A 
ATOM      7  C   UNL     1     -47.017  -7.196 -24.219  0.00  0.00    +0.000 A 
ATOM      8  O   UNL     1     -47.022  -8.205 -23.466  0.00  0.00    +0.000 OA
ATOM      9  N   UNL     1     -47.324  -5.974 -23.714  0.00  0.00    +0.000 N 
ATOM     10  C   UNL     1     -47.331  -4.863 -24.494  0.00  0.00    +0.000 A 
ATOM     11  C   UNL     1     -47.657  -3.627 -23.928  0.00  0.00    +0.000 A 
ATOM     12  C   UNL     1     -47.673  -2.475 -24.717  0.00  0.00    +0.000 A 
ATOM     13  C   UNL     1     -47.365  -2.555 -26.077  0.00  0.00    +0.000 A 
ATOM     14  C   UNL     1     -47.037  -3.786 -26.649  0.00  0.00    +0.000 A 
ATOM     15  C   UNL     1     -47.013  -4.955 -25.873  0.00  0.00    +0.000 A 
ATOM     16  H   UNL     1     -47.547  -5.892 -22.760  0.00  0.00    +0.000 HD
ENDBRANCH   2   5
BRANCH   3  17
ATOM     17  C   UNL     1     -47.164  -6.517 -30.258  0.00  0.00    +0.000 A 
ATOM     18  C   UNL     1     -47.320  -7.713 -30.931  0.00  0.00    +0.000 A 
ATOM     19  C   UNL     1     -47.043  -7.378 -32.253  0.00  0.00    +0.000 A 
ATOM     20  N   UNL     1     -46.744  -6.065 -32.337  0.00  0.00    +0.000 NA
ATOM     21  N   UNL     1     -46.825  -5.552 -31.123  0.00  0.00    +0.000 N 
BRANCH  21  22
ATOM     22  C   UNL     1     -46.536  -4.159 -30.808  0.00  0.00    +0.000 C 
BRANCH  22  23
ATOM     23  C   UNL     1     -45.522  -3.608 -31.761  0.00  0.00    +0.000 A 
ATOM     24  C   UNL     1     -45.935  -2.697 -32.741  0.00  0.00    +0.000 A 
ATOM     25  C   UNL     1     -45.014  -2.176 -33.653  0.00  0.00    +0.000 A 
ATOM     26  C   UNL     1     -43.673  -2.562 -33.588  0.00  0.00    +0.000 A 
ATOM     27  C   UNL     1     -43.253  -3.468 -32.612  0.00  0.00    +0.000 A 
ATOM     28  C   UNL     1     -44.170  -3.994 -31.696  0.00  0.00    +0.000 A 
ATOM     29 CL   UNL     1     -43.586  -5.112 -30.474  0.00  0.00    +0.000 Cl
ENDBRANCH  22  23
ENDBRANCH  21  22
ENDBRANCH   3  17
TORSDOF 4
ENDMDL
MODEL 2
REMARK VINA RESULT:      -7.1     10.663     14.744
REMARK  Name = ZINC000021907259
REMARK  4 active torsions:
REMARK  status: ('A' for Active; 'I' for Inactive)
REMARK    1  A    between atoms: C_2  and  C_5
REMARK    2  A    between atoms: N_3  and  C_17
REMARK    3  A    between atoms: N_21  and  C_22
REMARK    4  A    between atoms: C_22  and  C_23
REMARK                            x       y       z     vdW  Elec       q    Type
REMARK                         _______ _______ _______ _____ _____    ______ ____
ROOT
ATOM      1  O   UNL     1     -44.268 -14.000 -21.145  0.00  0.00    +0.000 OA
ATOM      2  C   UNL     1     -45.421 -14.198 -21.616  0.00  0.00    +0.000 C 
ATOM      3  N   UNL     1     -46.575 -14.011 -20.783  0.00  0.00    +0.000 N 
ATOM      4  H   UNL     1     -47.453 -14.204 -21.183  0.00  0.00    +0.000 HD
ENDROOT
BRANCH   2   5
ATOM      5  C   UNL     1     -45.603 -14.624 -23.029  0.00  0.00    +0.000 A 
ATOM      6  C   UNL     1     -45.806 -13.625 -23.991  0.00  0.00    +0.000 A 
ATOM      7  C   UNL     1     -45.981 -13.956 -25.332  0.00  0.00    +0.000 A 
ATOM      8  O   UNL     1     -46.162 -13.048 -26.184  0.00  0.00    +0.000 OA
ATOM      9  N   UNL     1     -45.956 -15.256 -25.723  0.00  0.00    +0.000 N 
ATOM     10  C   UNL     1     -45.764 -16.263 -24.834  0.00  0.00    +0.000 A 
ATOM     11  C   UNL     1     -45.750 -17.586 -25.285  0.00  0.00    +0.000 A 
ATOM     12  C   UNL     1     -45.559 -18.634 -24.382  0.00  0.00    +0.000 A 
ATOM     13  C   UNL     1     -45.383 -18.364 -23.024  0.00  0.00    +0.000 A 
ATOM     14  C   UNL     1     -45.395 -17.045 -22.565  0.00  0.00    +0.000 A 
ATOM     15  C   UNL     1     -45.583 -15.976 -23.456  0.00  0.00    +0.000 A 
ATOM     16  H   UNL     1     -46.080 -15.473 -26.674  0.00  0.00    +0.000 HD
ENDBRANCH   2   5
BRANCH   3  17
ATOM     17  C   UNL     1     -46.560 -13.566 -19.421  0.00  0.00    +0.000 A 
ATOM     18  C   UNL     1     -46.397 -12.267 -18.979  0.00  0.00    +0.000 A 
ATOM     19  C   UNL     1     -46.472 -12.385 -17.595  0.00  0.00    +0.000 A 
ATOM     20  N   UNL     1     -46.668 -13.677 -17.257  0.00  0.00    +0.000 NA
ATOM     21  N   UNL     1     -46.724 -14.383 -18.371  0.00  0.00    +0.000 N 
BRANCH  21  22
ATOM     22  C   UNL     1     -46.892 -15.830 -18.409  0.00  0.00    +0.000 C 
BRANCH  22  23
ATOM     23  C   UNL     1     -45.570 -16.503 -18.605  0.00  0.00    +0.000 A 
ATOM     24  C   UNL     1     -44.400 -15.821 -18.247  0.00  0.00    +0.000 A 
ATOM     25  C   UNL     1     -43.151 -16.418 -18.430  0.00  0.00    +0.000 A 
ATOM     26  C   UNL     1     -43.064 -17.702 -18.972  0.00  0.00    +0.000 A 
ATOM     27  C   UNL     1     -44.226 -18.390 -19.330  0.00  0.00    +0.000 A 
ATOM     28  C   UNL     1     -45.480 -17.798 -19.150  0.00  0.00    +0.000 A 
ATOM     29 CL   UNL     1     -46.911 -18.713 -19.595  0.00  0.00    +0.000 Cl
ENDBRANCH  22  23
ENDBRANCH  21  22
ENDBRANCH   3  17
TORSDOF 4
ENDMDL
MODEL 3
REMARK VINA RESULT:      -6.8      9.802     12.536
REMARK  Name = ZINC000021907259
REMARK  4 active torsions:
REMARK  status: ('A' for Active; 'I' for Inactive)
REMARK    1  A    between atoms: C_2  and  C_5
REMARK    2  A    between atoms: N_3  and  C_17
REMARK    3  A    between atoms: N_21  and  C_22
REMARK    4  A    between atoms: C_22  and  C_23
REMARK                            x       y       z     vdW  Elec       q    Type
REMARK                         _______ _______ _______ _____ _____    ______ ____
ROOT
ATOM      1  O   UNL     1     -44.254 -13.055 -23.267  0.00  0.00    +0.000 OA
ATOM      2  C   UNL     1     -45.330 -13.666 -23.026  0.00  0.00    +0.000 C 
ATOM      3  N   UNL     1     -46.049 -14.296 -24.096  0.00  0.00    +0.000 N 
ATOM      4  H   UNL     1     -46.899 -14.738 -23.868  0.00  0.00    +0.000 HD
ENDROOT
BRANCH   2   5
ATOM      5  C   UNL     1     -45.868 -13.743 -21.642  0.00  0.00    +0.000 A 
ATOM      6  C   UNL     1     -46.275 -12.548 -21.032  0.00  0.00    +0.000 A 
ATOM      7  C   UNL     1     -46.789 -12.551 -19.737  0.00  0.00    +0.000 A 
ATOM      8  O   UNL     1     -47.150 -11.470 -19.203  0.00  0.00    +0.000 OA
ATOM      9  N   UNL     1     -46.902 -13.717 -19.051  0.00  0.00    +0.000 N 
ATOM     10  C   UNL     1     -46.522 -14.902 -19.593  0.00  0.00    +0.000 A 
ATOM     11  C   UNL     1     -46.656 -16.075 -18.844  0.00  0.00    +0.000 A 
ATOM     12  C   UNL     1     -46.265 -17.302 -19.384  0.00  0.00    +0.000 A 
ATOM     13  C   UNL     1     -45.738 -17.360 -20.676  0.00  0.00    +0.000 A 
ATOM     14  C   UNL     1     -45.602 -16.193 -21.431  0.00  0.00    +0.000 A 
ATOM     15  C   UNL     1     -45.991 -14.950 -20.907  0.00  0.00    +0.000 A 
ATOM     16  H   UNL     1     -47.269 -13.702 -18.138  0.00  0.00    +0.000 HD
ENDBRANCH   2   5
BRANCH   3  17
ATOM     17  C   UNL     1     -45.638 -14.341 -25.468  0.00  0.00    +0.000 A 
ATOM     18  C   UNL     1     -46.199 -13.644 -26.521  0.00  0.00    +0.000 A 
ATOM     19  C   UNL     1     -45.430 -14.032 -27.612  0.00  0.00    +0.000 A 
ATOM     20  N   UNL     1     -44.479 -14.903 -27.213  0.00  0.00    +0.000 NA
ATOM     21  N   UNL     1     -44.610 -15.079 -25.912  0.00  0.00    +0.000 N 
BRANCH  21  22
ATOM     22  C   UNL     1     -43.780 -15.980 -25.125  0.00  0.00    +0.000 C 
BRANCH  22  23
ATOM     23  C   UNL     1     -44.268 -17.389 -25.259  0.00  0.00    +0.000 A 
ATOM     24  C   UNL     1     -45.352 -17.811 -24.479  0.00  0.00    +0.000 A 
ATOM     25  C   UNL     1     -45.821 -19.123 -24.574  0.00  0.00    +0.000 A 
ATOM     26  C   UNL     1     -45.209 -20.022 -25.450  0.00  0.00    +0.000 A 
ATOM     27  C   UNL     1     -44.128 -19.608 -26.233  0.00  0.00    +0.000 A 
ATOM     28  C   UNL     1     -43.654 -18.296 -26.144  0.00  0.00    +0.000 A 
ATOM     29 CL   UNL     1     -42.308 -17.820 -27.166  0.00  0.00    +0.000 Cl
ENDBRANCH  22  23
ENDBRANCH  21  22
ENDBRANCH   3  17
TORSDOF 4
ENDMDL
