MODEL 1
REMARK VINA RESULT:      -7.4      0.000      0.000
REMARK  Name = ZINC000003368851 ZINC03368851 CSC027878501 MCULE-2701712437 MolPort-005-844-179 PubChem-2486663
REMARK  7 active torsions:
REMARK  status: ('A' for Active; 'I' for Inactive)
REMARK    1  A    between atoms: C_6  and  C_19
REMARK    2  A    between atoms: N_10  and  C_18
REMARK    3  A    between atoms: C_19  and  O_20
REMARK    4  A    between atoms: O_20  and  C_21
REMARK    5  A    between atoms: C_21  and  C_23
REMARK    6  A    between atoms: C_23  and  S_24
REMARK    7  A    between atoms: S_24  and  C_25
REMARK                            x       y       z     vdW  Elec       q    Type
REMARK                         _______ _______ _______ _____ _____    ______ ____
ROOT
ATOM      1  C   UNL     1     -44.044 -19.028 -21.705  0.00  0.00    +0.000 A 
ATOM      2  N   UNL     1     -43.100 -19.964 -21.981  0.00  0.00    +0.000 NA
ATOM      3  C   UNL     1     -43.060 -20.556 -23.203  0.00  0.00    +0.000 A 
ATOM      4  N   UNL     1     -42.062 -21.527 -23.492  0.00  0.00    +0.000 N 
ATOM      5  N   UNL     1     -43.968 -20.216 -24.152  0.00  0.00    +0.000 NA
ATOM      6  C   UNL     1     -44.909 -19.277 -23.882  0.00  0.00    +0.000 A 
ATOM      7  N   UNL     1     -44.946 -18.685 -22.662  0.00  0.00    +0.000 NA
ATOM      8  H   UNL     1     -41.402 -21.774 -22.805  0.00  0.00    +0.000 HD
ATOM      9  H   UNL     1     -42.030 -21.951 -24.380  0.00  0.00    +0.000 HD
ATOM     10  N   UNL     1     -44.061 -18.412 -20.410  0.00  0.00    +0.000 N 
ATOM     11  H   UNL     1     -43.345 -18.679 -19.789  0.00  0.00    +0.000 HD
ENDROOT
BRANCH  10  18
ATOM     12  C   UNL     1     -46.627 -19.324 -19.439  0.00  0.00    +0.000 C 
ATOM     13  C   UNL     1     -46.258 -17.878 -19.434  0.00  0.00    +0.000 A 
ATOM     14  C   UNL     1     -47.178 -16.949 -18.934  0.00  0.00    +0.000 A 
ATOM     15  C   UNL     1     -46.864 -15.587 -18.909  0.00  0.00    +0.000 A 
ATOM     16  C   UNL     1     -45.629 -15.150 -19.389  0.00  0.00    +0.000 A 
ATOM     17  C   UNL     1     -44.709 -16.074 -19.891  0.00  0.00    +0.000 A 
ATOM     18  C   UNL     1     -45.007 -17.446 -19.914  0.00  0.00    +0.000 A 
ENDBRANCH  10  18
BRANCH   6  19
ATOM     19  C   UNL     1     -45.917 -18.917 -24.921  0.00  0.00    +0.000 C 
BRANCH  19  20
ATOM     20  O   UNL     1     -45.873 -17.518 -25.175  0.00  0.00    +0.000 OA
BRANCH  20  21
ATOM     21  C   UNL     1     -44.804 -16.915 -25.844  0.00  0.00    +0.000 C 
ATOM     22  O   UNL     1     -44.025 -17.593 -26.570  0.00  0.00    +0.000 OA
BRANCH  21  23
ATOM     23  C   UNL     1     -44.570 -15.453 -25.684  0.00  0.00    +0.000 C 
BRANCH  23  24
ATOM     24  S   UNL     1     -46.026 -14.660 -24.927  0.00  0.00    +0.000 S 
BRANCH  24  25
ATOM     25  C   UNL     1     -46.182 -13.448 -26.234  0.00  0.00    +0.000 A 
ATOM     26  C   UNL     1     -45.932 -13.815 -27.561  0.00  0.00    +0.000 A 
ATOM     27  C   UNL     1     -46.090 -12.876 -28.582  0.00  0.00    +0.000 A 
ATOM     28  C   UNL     1     -45.848 -13.300 -29.990  0.00  0.00    +0.000 C 
ATOM     29  C   UNL     1     -46.488 -11.565 -28.261  0.00  0.00    +0.000 A 
ATOM     30  C   UNL     1     -46.660 -10.582 -29.247  0.00  0.00    +0.000 A 
ATOM     31  C   UNL     1     -47.054  -9.289 -28.891  0.00  0.00    +0.000 A 
ATOM     32  C   UNL     1     -47.283  -8.969 -27.550  0.00  0.00    +0.000 A 
ATOM     33  C   UNL     1     -47.122  -9.941 -26.559  0.00  0.00    +0.000 A 
ATOM     34  C   UNL     1     -46.724 -11.236 -26.905  0.00  0.00    +0.000 A 
ATOM     35  N   UNL     1     -46.577 -12.181 -25.939  0.00  0.00    +0.000 NA
ENDBRANCH  24  25
ENDBRANCH  23  24
ENDBRANCH  21  23
ENDBRANCH  20  21
ENDBRANCH  19  20
ENDBRANCH   6  19
TORSDOF 7
ENDMDL
MODEL 2
REMARK VINA RESULT:      -7.3      3.343      4.691
REMARK  Name = ZINC000003368851 ZINC03368851 CSC027878501 MCULE-2701712437 MolPort-005-844-179 PubChem-2486663
REMARK  7 active torsions:
REMARK  status: ('A' for Active; 'I' for Inactive)
REMARK    1  A    between atoms: C_6  and  C_19
REMARK    2  A    between atoms: N_10  and  C_18
REMARK    3  A    between atoms: C_19  and  O_20
REMARK    4  A    between atoms: O_20  and  C_21
REMARK    5  A    between atoms: C_21  and  C_23
REMARK    6  A    between atoms: C_23  and  S_24
REMARK    7  A    between atoms: S_24  and  C_25
REMARK                            x       y       z     vdW  Elec       q    Type
REMARK                         _______ _______ _______ _____ _____    ______ ____
ROOT
ATOM      1  C   UNL     1     -43.922 -19.232 -21.491  0.00  0.00    +0.000 A 
ATOM      2  N   UNL     1     -42.998 -20.167 -21.834  0.00  0.00    +0.000 NA
ATOM      3  C   UNL     1     -42.904 -20.597 -23.119  0.00  0.00    +0.000 A 
ATOM      4  N   UNL     1     -41.927 -21.566 -23.476  0.00  0.00    +0.000 N 
ATOM      5  N   UNL     1     -43.737 -20.097 -24.065  0.00  0.00    +0.000 NA
ATOM      6  C   UNL     1     -44.658 -19.158 -23.728  0.00  0.00    +0.000 A 
ATOM      7  N   UNL     1     -44.749 -18.728 -22.445  0.00  0.00    +0.000 NA
ATOM      8  H   UNL     1     -41.321 -21.930 -22.790  0.00  0.00    +0.000 HD
ATOM      9  H   UNL     1     -41.856 -21.873 -24.409  0.00  0.00    +0.000 HD
ATOM     10  N   UNL     1     -43.996 -18.788 -20.129  0.00  0.00    +0.000 N 
ATOM     11  H   UNL     1     -43.331 -19.166 -19.509  0.00  0.00    +0.000 HD
ENDROOT
BRANCH  10  18
ATOM     12  C   UNL     1     -43.023 -16.277 -19.079  0.00  0.00    +0.000 C 
ATOM     13  C   UNL     1     -44.473 -16.623 -19.056  0.00  0.00    +0.000 A 
ATOM     14  C   UNL     1     -45.380 -15.700 -18.522  0.00  0.00    +0.000 A 
ATOM     15  C   UNL     1     -46.747 -15.990 -18.489  0.00  0.00    +0.000 A 
ATOM     16  C   UNL     1     -47.212 -17.208 -18.986  0.00  0.00    +0.000 A 
ATOM     17  C   UNL     1     -46.309 -18.133 -19.518  0.00  0.00    +0.000 A 
ATOM     18  C   UNL     1     -44.934 -17.853 -19.566  0.00  0.00    +0.000 A 
ENDBRANCH  10  18
BRANCH   6  19
ATOM     19  C   UNL     1     -45.584 -18.621 -24.766  0.00  0.00    +0.000 C 
BRANCH  19  20
ATOM     20  O   UNL     1     -44.838 -18.095 -25.857  0.00  0.00    +0.000 OA
BRANCH  20  21
ATOM     21  C   UNL     1     -44.602 -16.725 -26.007  0.00  0.00    +0.000 C 
ATOM     22  O   UNL     1     -44.444 -16.213 -27.150  0.00  0.00    +0.000 OA
BRANCH  21  23
ATOM     23  C   UNL     1     -44.518 -15.860 -24.798  0.00  0.00    +0.000 C 
BRANCH  23  24
ATOM     24  S   UNL     1     -46.061 -14.913 -24.591  0.00  0.00    +0.000 S 
BRANCH  24  25
ATOM     25  C   UNL     1     -45.530 -14.175 -23.050  0.00  0.00    +0.000 A 
ATOM     26  C   UNL     1     -44.165 -14.059 -22.764  0.00  0.00    +0.000 A 
ATOM     27  C   UNL     1     -43.755 -13.450 -21.577  0.00  0.00    +0.000 A 
ATOM     28  C   UNL     1     -42.294 -13.310 -21.310  0.00  0.00    +0.000 C 
ATOM     29  C   UNL     1     -44.721 -12.970 -20.674  0.00  0.00    +0.000 A 
ATOM     30  C   UNL     1     -44.364 -12.352 -19.467  0.00  0.00    +0.000 A 
ATOM     31  C   UNL     1     -45.352 -11.890 -18.593  0.00  0.00    +0.000 A 
ATOM     32  C   UNL     1     -46.703 -12.038 -18.919  0.00  0.00    +0.000 A 
ATOM     33  C   UNL     1     -47.072 -12.646 -20.122  0.00  0.00    +0.000 A 
ATOM     34  C   UNL     1     -46.091 -13.115 -21.000  0.00  0.00    +0.000 A 
ATOM     35  N   UNL     1     -46.454 -13.697 -22.174  0.00  0.00    +0.000 NA
ENDBRANCH  24  25
ENDBRANCH  23  24
ENDBRANCH  21  23
ENDBRANCH  20  21
ENDBRANCH  19  20
ENDBRANCH   6  19
TORSDOF 7
ENDMDL
MODEL 3
REMARK VINA RESULT:      -7.2      3.315      5.937
REMARK  Name = ZINC000003368851 ZINC03368851 CSC027878501 MCULE-2701712437 MolPort-005-844-179 PubChem-2486663
REMARK  7 active torsions:
REMARK  status: ('A' for Active; 'I' for Inactive)
REMARK    1  A    between atoms: C_6  and  C_19
REMARK    2  A    between atoms: N_10  and  C_18
REMARK    3  A    between atoms: C_19  and  O_20
REMARK    4  A    between atoms: O_20  and  C_21
REMARK    5  A    between atoms: C_21  and  C_23
REMARK    6  A    between atoms: C_23  and  S_24
REMARK    7  A    between atoms: S_24  and  C_25
REMARK                            x       y       z     vdW  Elec       q    Type
REMARK                         _______ _______ _______ _____ _____    ______ ____
ROOT
ATOM      1  C   UNL     1     -43.688 -19.516 -21.025  0.00  0.00    +0.000 A 
ATOM      2  N   UNL     1     -42.965 -20.025 -19.995  0.00  0.00    +0.000 NA
ATOM      3  C   UNL     1     -43.262 -19.684 -18.715  0.00  0.00    +0.000 A 
ATOM      4  N   UNL     1     -42.510 -20.230 -17.639  0.00  0.00    +0.000 N 
ATOM      5  N   UNL     1     -44.282 -18.828 -18.461  0.00  0.00    +0.000 NA
ATOM      6  C   UNL     1     -45.012 -18.320 -19.486  0.00  0.00    +0.000 A 
ATOM      7  N   UNL     1     -44.714 -18.664 -20.765  0.00  0.00    +0.000 NA
ATOM      8  H   UNL     1     -41.769 -20.852 -17.822  0.00  0.00    +0.000 HD
ATOM      9  H   UNL     1     -42.731 -19.986 -16.711  0.00  0.00    +0.000 HD
ATOM     10  N   UNL     1     -43.359 -19.898 -22.368  0.00  0.00    +0.000 N 
ATOM     11  H   UNL     1     -42.633 -20.556 -22.471  0.00  0.00    +0.000 HD
ENDROOT
BRANCH  10  18
ATOM     12  C   UNL     1     -41.890 -20.097 -24.850  0.00  0.00    +0.000 C 
ATOM     13  C   UNL     1     -43.266 -19.524 -24.801  0.00  0.00    +0.000 A 
ATOM     14  C   UNL     1     -43.858 -19.085 -25.991  0.00  0.00    +0.000 A 
ATOM     15  C   UNL     1     -45.149 -18.548 -25.982  0.00  0.00    +0.000 A 
ATOM     16  C   UNL     1     -45.850 -18.443 -24.781  0.00  0.00    +0.000 A 
ATOM     17  C   UNL     1     -45.262 -18.878 -23.590  0.00  0.00    +0.000 A 
ATOM     18  C   UNL     1     -43.970 -19.428 -23.585  0.00  0.00    +0.000 A 
ENDBRANCH  10  18
BRANCH   6  19
ATOM     19  C   UNL     1     -46.123 -17.366 -19.206  0.00  0.00    +0.000 C 
BRANCH  19  20
ATOM     20  O   UNL     1     -45.702 -16.395 -18.256  0.00  0.00    +0.000 OA
BRANCH  20  21
ATOM     21  C   UNL     1     -46.082 -15.053 -18.344  0.00  0.00    +0.000 C 
ATOM     22  O   UNL     1     -46.835 -14.530 -17.476  0.00  0.00    +0.000 OA
BRANCH  21  23
ATOM     23  C   UNL     1     -45.604 -14.230 -19.490  0.00  0.00    +0.000 C 
BRANCH  23  24
ATOM     24  S   UNL     1     -46.929 -14.035 -20.725  0.00  0.00    +0.000 S 
BRANCH  24  25
ATOM     25  C   UNL     1     -45.866 -14.474 -22.095  0.00  0.00    +0.000 A 
ATOM     26  C   UNL     1     -44.620 -15.063 -21.854  0.00  0.00    +0.000 A 
ATOM     27  C   UNL     1     -43.810 -15.438 -22.927  0.00  0.00    +0.000 A 
ATOM     28  C   UNL     1     -42.501 -16.092 -22.643  0.00  0.00    +0.000 C 
ATOM     29  C   UNL     1     -44.252 -15.206 -24.242  0.00  0.00    +0.000 A 
ATOM     30  C   UNL     1     -43.477 -15.561 -25.356  0.00  0.00    +0.000 A 
ATOM     31  C   UNL     1     -43.947 -15.314 -26.649  0.00  0.00    +0.000 A 
ATOM     32  C   UNL     1     -45.194 -14.714 -26.839  0.00  0.00    +0.000 A 
ATOM     33  C   UNL     1     -45.980 -14.362 -25.737  0.00  0.00    +0.000 A 
ATOM     34  C   UNL     1     -45.516 -14.602 -24.441  0.00  0.00    +0.000 A 
ATOM     35  N   UNL     1     -46.286 -14.267 -23.372  0.00  0.00    +0.000 NA
ENDBRANCH  24  25
ENDBRANCH  23  24
ENDBRANCH  21  23
ENDBRANCH  20  21
ENDBRANCH  19  20
ENDBRANCH   6  19
TORSDOF 7
ENDMDL
