MODEL 1
REMARK VINA RESULT:      -7.0      0.000      0.000
REMARK  Name = ZINC000008861088
REMARK  3 active torsions:
REMARK  status: ('A' for Active; 'I' for Inactive)
REMARK    1  A    between atoms: C_1  and  C_3
REMARK    2  A    between atoms: C_1  and  O_15
REMARK    3  A    between atoms: O_15  and  C_19
REMARK                            x       y       z     vdW  Elec       q    Type
REMARK                         _______ _______ _______ _____ _____    ______ ____
ROOT
ATOM      1  C   UNL     1     -46.467  -4.077 -30.848  0.00  0.00    +0.000 C 
ATOM      2  O   UNL     1     -47.222  -4.649 -31.678  0.00  0.00    +0.000 OA
ENDROOT
BRANCH   1   3
ATOM      3  C   UNL     1     -45.006  -4.019 -31.105  0.00  0.00    +0.000 A 
ATOM      4  C   UNL     1     -44.244  -5.174 -30.889  0.00  0.00    +0.000 A 
ATOM      5  C   UNL     1     -42.872  -5.167 -31.135  0.00  0.00    +0.000 A 
ATOM      6  O   UNL     1     -42.194  -6.208 -30.935  0.00  0.00    +0.000 OA
ATOM      7  N   UNL     1     -42.265  -4.041 -31.590  0.00  0.00    +0.000 N 
ATOM      8  C   UNL     1     -42.963  -2.898 -31.817  0.00  0.00    +0.000 A 
ATOM      9  C   UNL     1     -42.295  -1.760 -32.279  0.00  0.00    +0.000 A 
ATOM     10  C   UNL     1     -43.000  -0.575 -32.505  0.00  0.00    +0.000 A 
ATOM     11  C   UNL     1     -44.375  -0.523 -32.267  0.00  0.00    +0.000 A 
ATOM     12  C   UNL     1     -45.052  -1.656 -31.806  0.00  0.00    +0.000 A 
ATOM     13  C   UNL     1     -44.359  -2.857 -31.582  0.00  0.00    +0.000 A 
ATOM     14  H   UNL     1     -41.296  -4.053 -31.759  0.00  0.00    +0.000 HD
ENDBRANCH   1   3
BRANCH   1  15
ATOM     15  O   UNL     1     -47.030  -3.590 -29.659  0.00  0.00    +0.000 OA
BRANCH  15  19
ATOM     16  C   UNL     1     -47.427  -3.239 -24.798  0.00  0.00    +0.000 C 
ATOM     17  C   UNL     1     -47.140  -4.077 -25.997  0.00  0.00    +0.000 A 
ATOM     18  C   UNL     1     -47.215  -3.484 -27.260  0.00  0.00    +0.000 A 
ATOM     19  C   UNL     1     -46.959  -4.227 -28.413  0.00  0.00    +0.000 A 
ATOM     20  C   UNL     1     -46.604  -5.579 -28.291  0.00  0.00    +0.000 A 
ATOM     21  C   UNL     1     -46.527  -6.186 -27.036  0.00  0.00    +0.000 A 
ATOM     22  C   UNL     1     -46.154  -7.627 -26.963  0.00  0.00    +0.000 C 
ATOM     23  C   UNL     1     -46.796  -5.436 -25.876  0.00  0.00    +0.000 A 
ATOM     24 CL   UNL     1     -46.701  -6.194 -24.285  0.00  0.00    +0.000 Cl
ENDBRANCH  15  19
ENDBRANCH   1  15
TORSDOF 3
ENDMDL
MODEL 2
REMARK VINA RESULT:      -6.8     12.099     14.002
REMARK  Name = ZINC000008861088
REMARK  3 active torsions:
REMARK  status: ('A' for Active; 'I' for Inactive)
REMARK    1  A    between atoms: C_1  and  C_3
REMARK    2  A    between atoms: C_1  and  O_15
REMARK    3  A    between atoms: O_15  and  C_19
REMARK                            x       y       z     vdW  Elec       q    Type
REMARK                         _______ _______ _______ _____ _____    ______ ____
ROOT
ATOM      1  C   UNL     1     -45.517 -14.875 -24.836  0.00  0.00    +0.000 C 
ATOM      2  O   UNL     1     -46.674 -14.485 -25.147  0.00  0.00    +0.000 OA
ENDROOT
BRANCH   1   3
ATOM      3  C   UNL     1     -44.801 -15.827 -25.722  0.00  0.00    +0.000 A 
ATOM      4  C   UNL     1     -43.973 -15.309 -26.727  0.00  0.00    +0.000 A 
ATOM      5  C   UNL     1     -43.269 -16.169 -27.569  0.00  0.00    +0.000 A 
ATOM      6  O   UNL     1     -42.530 -15.697 -28.471  0.00  0.00    +0.000 OA
ATOM      7  N   UNL     1     -43.378 -17.515 -27.417  0.00  0.00    +0.000 N 
ATOM      8  C   UNL     1     -44.166 -18.062 -26.456  0.00  0.00    +0.000 A 
ATOM      9  C   UNL     1     -44.253 -19.453 -26.343  0.00  0.00    +0.000 A 
ATOM     10  C   UNL     1     -45.069 -20.027 -25.365  0.00  0.00    +0.000 A 
ATOM     11  C   UNL     1     -45.803 -19.214 -24.499  0.00  0.00    +0.000 A 
ATOM     12  C   UNL     1     -45.722 -17.822 -24.605  0.00  0.00    +0.000 A 
ATOM     13  C   UNL     1     -44.900 -17.229 -25.577  0.00  0.00    +0.000 A 
ATOM     14  H   UNL     1     -42.874 -18.107 -28.020  0.00  0.00    +0.000 HD
ENDBRANCH   1   3
BRANCH   1  15
ATOM     15  O   UNL     1     -44.981 -14.459 -23.609  0.00  0.00    +0.000 OA
BRANCH  15  19
ATOM     16  C   UNL     1     -45.517 -17.654 -19.946  0.00  0.00    +0.000 C 
ATOM     17  C   UNL     1     -45.820 -16.314 -20.524  0.00  0.00    +0.000 A 
ATOM     18  C   UNL     1     -45.279 -15.986 -21.771  0.00  0.00    +0.000 A 
ATOM     19  C   UNL     1     -45.530 -14.742 -22.351  0.00  0.00    +0.000 A 
ATOM     20  C   UNL     1     -46.352 -13.825 -21.678  0.00  0.00    +0.000 A 
ATOM     21  C   UNL     1     -46.898 -14.138 -20.432  0.00  0.00    +0.000 A 
ATOM     22  C   UNL     1     -47.756 -13.125 -19.756  0.00  0.00    +0.000 C 
ATOM     23  C   UNL     1     -46.634 -15.389 -19.844  0.00  0.00    +0.000 A 
ATOM     24 CL   UNL     1     -47.319 -15.794 -18.268  0.00  0.00    +0.000 Cl
ENDBRANCH  15  19
ENDBRANCH   1  15
TORSDOF 3
ENDMDL
MODEL 3
REMARK VINA RESULT:      -6.7      2.264      3.173
REMARK  Name = ZINC000008861088
REMARK  3 active torsions:
REMARK  status: ('A' for Active; 'I' for Inactive)
REMARK    1  A    between atoms: C_1  and  C_3
REMARK    2  A    between atoms: C_1  and  O_15
REMARK    3  A    between atoms: O_15  and  C_19
REMARK                            x       y       z     vdW  Elec       q    Type
REMARK                         _______ _______ _______ _____ _____    ______ ____
ROOT
ATOM      1  C   UNL     1     -46.721  -3.895 -32.933  0.00  0.00    +0.000 C 
ATOM      2  O   UNL     1     -47.560  -3.892 -33.872  0.00  0.00    +0.000 OA
ENDROOT
BRANCH   1   3
ATOM      3  C   UNL     1     -45.271  -3.956 -33.246  0.00  0.00    +0.000 A 
ATOM      4  C   UNL     1     -44.739  -5.166 -33.710  0.00  0.00    +0.000 A 
ATOM      5  C   UNL     1     -43.386  -5.261 -34.032  0.00  0.00    +0.000 A 
ATOM      6  O   UNL     1     -42.915  -6.352 -34.445  0.00  0.00    +0.000 OA
ATOM      7  N   UNL     1     -42.575  -4.179 -33.903  0.00  0.00    +0.000 N 
ATOM      8  C   UNL     1     -43.046  -2.985 -33.460  0.00  0.00    +0.000 A 
ATOM      9  C   UNL     1     -42.173  -1.900 -33.335  0.00  0.00    +0.000 A 
ATOM     10  C   UNL     1     -42.644  -0.670 -32.870  0.00  0.00    +0.000 A 
ATOM     11  C   UNL     1     -43.989  -0.520 -32.525  0.00  0.00    +0.000 A 
ATOM     12  C   UNL     1     -44.869  -1.599 -32.647  0.00  0.00    +0.000 A 
ATOM     13  C   UNL     1     -44.414  -2.840 -33.121  0.00  0.00    +0.000 A 
ATOM     14  H   UNL     1     -41.622  -4.263 -34.135  0.00  0.00    +0.000 HD
ENDBRANCH   1   3
BRANCH   1  15
ATOM     15  O   UNL     1     -47.196  -3.931 -31.614  0.00  0.00    +0.000 OA
BRANCH  15  19
ATOM     16  C   UNL     1     -47.756  -8.746 -30.968  0.00  0.00    +0.000 C 
ATOM     17  C   UNL     1     -47.382  -7.419 -30.403  0.00  0.00    +0.000 A 
ATOM     18  C   UNL     1     -47.447  -6.296 -31.233  0.00  0.00    +0.000 A 
ATOM     19  C   UNL     1     -47.102  -5.032 -30.753  0.00  0.00    +0.000 A 
ATOM     20  C   UNL     1     -46.705  -4.894 -29.414  0.00  0.00    +0.000 A 
ATOM     21  C   UNL     1     -46.633  -6.006 -28.573  0.00  0.00    +0.000 A 
ATOM     22  C   UNL     1     -46.197  -5.804 -27.163  0.00  0.00    +0.000 C 
ATOM     23  C   UNL     1     -46.971  -7.281 -29.064  0.00  0.00    +0.000 A 
ATOM     24 CL   UNL     1     -46.883  -8.693 -28.008  0.00  0.00    +0.000 Cl
ENDBRANCH  15  19
ENDBRANCH   1  15
TORSDOF 3
ENDMDL
