MODEL 1
REMARK VINA RESULT:      -7.4      0.000      0.000
REMARK  Name = ZINC000032899841 ZINC32899841 PubChem-40135872
REMARK  6 active torsions:
REMARK  status: ('A' for Active; 'I' for Inactive)
REMARK    1  A    between atoms: C_1  and  C_19
REMARK    2  A    between atoms: C_12  and  C_15
REMARK    3  A    between atoms: C_19  and  O_21
REMARK    4  A    between atoms: O_21  and  C_22
REMARK    5  A    between atoms: C_22  and  C_25
REMARK    6  A    between atoms: C_25  and  N_26
REMARK                            x       y       z     vdW  Elec       q    Type
REMARK                         _______ _______ _______ _____ _____    ______ ____
ROOT
ATOM      1  C   UNL     1     -43.324  -4.689 -33.238  0.00  0.00    +0.000 C 
ATOM      2  O   UNL     1     -42.479  -4.895 -34.149  0.00  0.00    +0.000 OA
ATOM      3  N   UNL     1     -43.311  -3.446 -32.496  0.00  0.00    +0.000 N 
ATOM      4  C   UNL     1     -44.442  -3.140 -31.606  0.00  0.00    +0.000 C 
ATOM      5  C   UNL     1     -44.720  -1.671 -31.545  0.00  0.00    +0.000 C 
ATOM      6  O   UNL     1     -45.870  -1.264 -31.240  0.00  0.00    +0.000 OA
ATOM      7  N   UNL     1     -43.661  -0.736 -31.746  0.00  0.00    +0.000 N 
ATOM      8  C   UNL     1     -42.378  -1.182 -32.176  0.00  0.00    +0.000 A 
ATOM      9  C   UNL     1     -42.191  -2.526 -32.554  0.00  0.00    +0.000 A 
ATOM     10  C   UNL     1     -40.920  -2.939 -32.980  0.00  0.00    +0.000 A 
ATOM     11  C   UNL     1     -39.860  -2.032 -33.039  0.00  0.00    +0.000 A 
ATOM     12  C   UNL     1     -40.048  -0.696 -32.658  0.00  0.00    +0.000 A 
ATOM     13  C   UNL     1     -41.316  -0.275 -32.243  0.00  0.00    +0.000 A 
ATOM     14  H   UNL     1     -43.818   0.223 -31.586  0.00  0.00    +0.000 HD
ENDROOT
BRANCH  12  15
ATOM     15  C   UNL     1     -38.927   0.296 -32.773  0.00  0.00    +0.000 C 
ATOM     16  F   UNL     1     -38.464   0.615 -31.509  0.00  0.00    +0.000 F 
ATOM     17  F   UNL     1     -37.887  -0.243 -33.513  0.00  0.00    +0.000 F 
ATOM     18  F   UNL     1     -39.359   1.451 -33.401  0.00  0.00    +0.000 F 
ENDBRANCH  12  15
BRANCH   1  19
ATOM     19  C   UNL     1     -44.350  -5.755 -32.998  0.00  0.00    +0.000 C 
ATOM     20  C   UNL     1     -44.307  -6.818 -34.083  0.00  0.00    +0.000 C 
BRANCH  19  21
ATOM     21  O   UNL     1     -44.171  -6.336 -31.713  0.00  0.00    +0.000 OA
BRANCH  21  22
ATOM     22  C   UNL     1     -45.055  -7.287 -31.196  0.00  0.00    +0.000 C 
ATOM     23  O   UNL     1     -44.627  -8.375 -30.720  0.00  0.00    +0.000 OA
BRANCH  22  25
ATOM     24  C   UNL     1     -47.309  -8.257 -30.772  0.00  0.00    +0.000 C 
ATOM     25  C   UNL     1     -46.526  -7.039 -31.236  0.00  0.00    +0.000 C 
BRANCH  25  26
ATOM     26  N   UNL     1     -46.882  -5.851 -30.461  0.00  0.00    +0.000 N 
ATOM     27  C   UNL     1     -46.801  -5.700 -29.128  0.00  0.00    +0.000 A 
ATOM     28  C   UNL     1     -46.349  -6.606 -28.170  0.00  0.00    +0.000 A 
ATOM     29  C   UNL     1     -46.394  -6.192 -26.825  0.00  0.00    +0.000 A 
ATOM     30  C   UNL     1     -46.881  -4.911 -26.481  0.00  0.00    +0.000 A 
ATOM     31  C   UNL     1     -47.334  -4.023 -27.474  0.00  0.00    +0.000 A 
ATOM     32  C   UNL     1     -47.279  -4.463 -28.792  0.00  0.00    +0.000 A 
ATOM     33  O   UNL     1     -47.654  -3.834 -29.881  0.00  0.00    +0.000 OA
ATOM     34  C   UNL     1     -47.419  -4.673 -30.876  0.00  0.00    +0.000 A 
ATOM     35  O   UNL     1     -47.677  -4.404 -32.079  0.00  0.00    +0.000 OA
ENDBRANCH  25  26
ENDBRANCH  22  25
ENDBRANCH  21  22
ENDBRANCH  19  21
ENDBRANCH   1  19
TORSDOF 6
ENDMDL
MODEL 2
REMARK VINA RESULT:      -7.1      1.614      2.567
REMARK  Name = ZINC000032899841 ZINC32899841 PubChem-40135872
REMARK  6 active torsions:
REMARK  status: ('A' for Active; 'I' for Inactive)
REMARK    1  A    between atoms: C_1  and  C_19
REMARK    2  A    between atoms: C_12  and  C_15
REMARK    3  A    between atoms: C_19  and  O_21
REMARK    4  A    between atoms: O_21  and  C_22
REMARK    5  A    between atoms: C_22  and  C_25
REMARK    6  A    between atoms: C_25  and  N_26
REMARK                            x       y       z     vdW  Elec       q    Type
REMARK                         _______ _______ _______ _____ _____    ______ ____
ROOT
ATOM      1  C   UNL     1     -43.652  -5.805 -34.264  0.00  0.00    +0.000 C 
ATOM      2  O   UNL     1     -42.494  -5.859 -34.755  0.00  0.00    +0.000 OA
ATOM      3  N   UNL     1     -44.139  -4.576 -33.672  0.00  0.00    +0.000 N 
ATOM      4  C   UNL     1     -45.564  -4.474 -33.320  0.00  0.00    +0.000 C 
ATOM      5  C   UNL     1     -46.079  -3.080 -33.483  0.00  0.00    +0.000 C 
ATOM      6  O   UNL     1     -47.305  -2.884 -33.683  0.00  0.00    +0.000 OA
ATOM      7  N   UNL     1     -45.196  -1.969 -33.326  0.00  0.00    +0.000 N 
ATOM      8  C   UNL     1     -43.793  -2.179 -33.186  0.00  0.00    +0.000 A 
ATOM      9  C   UNL     1     -43.255  -3.469 -33.359  0.00  0.00    +0.000 A 
ATOM     10  C   UNL     1     -41.870  -3.649 -33.223  0.00  0.00    +0.000 A 
ATOM     11  C   UNL     1     -41.038  -2.566 -32.932  0.00  0.00    +0.000 A 
ATOM     12  C   UNL     1     -41.577  -1.284 -32.757  0.00  0.00    +0.000 A 
ATOM     13  C   UNL     1     -42.956  -1.096 -32.902  0.00  0.00    +0.000 A 
ATOM     14  H   UNL     1     -45.558  -1.054 -33.313  0.00  0.00    +0.000 HD
ENDROOT
BRANCH  12  15
ATOM     15  C   UNL     1     -40.681  -0.107 -32.501  0.00  0.00    +0.000 C 
ATOM     16  F   UNL     1     -40.632   0.688 -33.632  0.00  0.00    +0.000 F 
ATOM     17  F   UNL     1     -41.167   0.641 -31.442  0.00  0.00    +0.000 F 
ATOM     18  F   UNL     1     -39.399  -0.527 -32.189  0.00  0.00    +0.000 F 
ENDBRANCH  12  15
BRANCH   1  19
ATOM     19  C   UNL     1     -44.500  -7.036 -34.364  0.00  0.00    +0.000 C 
ATOM     20  C   UNL     1     -44.352  -7.700 -35.722  0.00  0.00    +0.000 C 
BRANCH  19  21
ATOM     21  O   UNL     1     -44.180  -7.946 -33.319  0.00  0.00    +0.000 OA
BRANCH  21  22
ATOM     22  C   UNL     1     -44.498  -7.687 -31.983  0.00  0.00    +0.000 C 
ATOM     23  O   UNL     1     -43.593  -7.430 -31.142  0.00  0.00    +0.000 OA
BRANCH  22  25
ATOM     24  C   UNL     1     -46.604  -9.014 -32.017  0.00  0.00    +0.000 C 
ATOM     25  C   UNL     1     -45.918  -7.749 -31.528  0.00  0.00    +0.000 C 
BRANCH  25  26
ATOM     26  N   UNL     1     -46.013  -7.622 -30.073  0.00  0.00    +0.000 N 
ATOM     27  C   UNL     1     -46.381  -6.531 -29.380  0.00  0.00    +0.000 A 
ATOM     28  C   UNL     1     -46.777  -5.282 -29.856  0.00  0.00    +0.000 A 
ATOM     29  C   UNL     1     -47.090  -4.300 -28.897  0.00  0.00    +0.000 A 
ATOM     30  C   UNL     1     -47.000  -4.587 -27.516  0.00  0.00    +0.000 A 
ATOM     31  C   UNL     1     -46.592  -5.858 -27.070  0.00  0.00    +0.000 A 
ATOM     32  C   UNL     1     -46.288  -6.805 -28.042  0.00  0.00    +0.000 A 
ATOM     33  O   UNL     1     -45.873  -8.039 -27.881  0.00  0.00    +0.000 OA
ATOM     34  C   UNL     1     -45.706  -8.521 -29.102  0.00  0.00    +0.000 A 
ATOM     35  O   UNL     1     -45.295  -9.690 -29.331  0.00  0.00    +0.000 OA
ENDBRANCH  25  26
ENDBRANCH  22  25
ENDBRANCH  21  22
ENDBRANCH  19  21
ENDBRANCH   1  19
TORSDOF 6
ENDMDL
MODEL 3
REMARK VINA RESULT:      -6.9     11.966     15.229
REMARK  Name = ZINC000032899841 ZINC32899841 PubChem-40135872
REMARK  6 active torsions:
REMARK  status: ('A' for Active; 'I' for Inactive)
REMARK    1  A    between atoms: C_1  and  C_19
REMARK    2  A    between atoms: C_12  and  C_15
REMARK    3  A    between atoms: C_19  and  O_21
REMARK    4  A    between atoms: O_21  and  C_22
REMARK    5  A    between atoms: C_22  and  C_25
REMARK    6  A    between atoms: C_25  and  N_26
REMARK                            x       y       z     vdW  Elec       q    Type
REMARK                         _______ _______ _______ _____ _____    ______ ____
ROOT
ATOM      1  C   UNL     1     -44.353 -15.758 -23.997  0.00  0.00    +0.000 C 
ATOM      2  O   UNL     1     -44.695 -14.617 -23.589  0.00  0.00    +0.000 OA
ATOM      3  N   UNL     1     -44.272 -16.034 -25.416  0.00  0.00    +0.000 N 
ATOM      4  C   UNL     1     -43.653 -17.293 -25.860  0.00  0.00    +0.000 C 
ATOM      5  C   UNL     1     -42.942 -17.133 -27.166  0.00  0.00    +0.000 C 
ATOM      6  O   UNL     1     -42.002 -17.911 -27.468  0.00  0.00    +0.000 OA
ATOM      7  N   UNL     1     -43.389 -16.155 -28.106  0.00  0.00    +0.000 N 
ATOM      8  C   UNL     1     -44.394 -15.213 -27.742  0.00  0.00    +0.000 A 
ATOM      9  C   UNL     1     -44.839 -15.141 -26.409  0.00  0.00    +0.000 A 
ATOM     10  C   UNL     1     -45.825 -14.199 -26.074  0.00  0.00    +0.000 A 
ATOM     11  C   UNL     1     -46.348 -13.342 -27.044  0.00  0.00    +0.000 A 
ATOM     12  C   UNL     1     -45.905 -13.419 -28.371  0.00  0.00    +0.000 A 
ATOM     13  C   UNL     1     -44.914 -14.348 -28.709  0.00  0.00    +0.000 A 
ATOM     14  H   UNL     1     -43.000 -16.132 -29.011  0.00  0.00    +0.000 HD
ENDROOT
BRANCH  12  15
ATOM     15  C   UNL     1     -46.422 -12.461 -29.406  0.00  0.00    +0.000 C 
ATOM     16  F   UNL     1     -47.756 -12.728 -29.652  0.00  0.00    +0.000 F 
ATOM     17  F   UNL     1     -46.296 -11.158 -28.955  0.00  0.00    +0.000 F 
ATOM     18  F   UNL     1     -45.711 -12.588 -30.587  0.00  0.00    +0.000 F 
ENDBRANCH  12  15
BRANCH   1  19
ATOM     19  C   UNL     1     -43.996 -16.780 -22.961  0.00  0.00    +0.000 C 
ATOM     20  C   UNL     1     -42.989 -16.230 -21.966  0.00  0.00    +0.000 C 
BRANCH  19  21
ATOM     21  O   UNL     1     -45.166 -17.241 -22.294  0.00  0.00    +0.000 OA
BRANCH  21  22
ATOM     22  C   UNL     1     -45.133 -18.290 -21.372  0.00  0.00    +0.000 C 
ATOM     23  O   UNL     1     -44.507 -19.355 -21.629  0.00  0.00    +0.000 OA
BRANCH  22  25
ATOM     24  C   UNL     1     -46.016 -19.524 -19.398  0.00  0.00    +0.000 C 
ATOM     25  C   UNL     1     -45.874 -18.174 -20.082  0.00  0.00    +0.000 C 
BRANCH  25  26
ATOM     26  N   UNL     1     -45.244 -17.193 -19.198  0.00  0.00    +0.000 N 
ATOM     27  C   UNL     1     -45.781 -16.045 -18.751  0.00  0.00    +0.000 A 
ATOM     28  C   UNL     1     -47.049 -15.519 -18.991  0.00  0.00    +0.000 A 
ATOM     29  C   UNL     1     -47.346 -14.271 -18.409  0.00  0.00    +0.000 A 
ATOM     30  C   UNL     1     -46.386 -13.597 -17.621  0.00  0.00    +0.000 A 
ATOM     31  C   UNL     1     -45.113 -14.155 -17.404  0.00  0.00    +0.000 A 
ATOM     32  C   UNL     1     -44.851 -15.387 -17.993  0.00  0.00    +0.000 A 
ATOM     33  O   UNL     1     -43.747 -16.095 -17.952  0.00  0.00    +0.000 OA
ATOM     34  C   UNL     1     -43.987 -17.173 -18.681  0.00  0.00    +0.000 A 
ATOM     35  O   UNL     1     -43.132 -18.077 -18.876  0.00  0.00    +0.000 OA
ENDBRANCH  25  26
ENDBRANCH  22  25
ENDBRANCH  21  22
ENDBRANCH  19  21
ENDBRANCH   1  19
TORSDOF 6
ENDMDL
