MODEL 1
REMARK VINA RESULT:      -6.6      0.000      0.000
REMARK  Name = ZINC000031807936
REMARK  2 active torsions:
REMARK  status: ('A' for Active; 'I' for Inactive)
REMARK    1  A    between atoms: C_1  and  C_27
REMARK    2  A    between atoms: C_24  and  O_31
REMARK                            x       y       z     vdW  Elec       q    Type
REMARK                         _______ _______ _______ _____ _____    ______ ____
ROOT
ATOM      1  C   UNL     1     -45.835  -4.545 -31.596  0.00  0.00    +0.000 C 
ATOM      2  S   UNL     1     -45.710  -4.934 -29.822  0.00  0.00    +0.000 S 
ATOM      3  C   UNL     1     -44.024  -5.566 -29.980  0.00  0.00    +0.000 C 
ATOM      4  C   UNL     1     -44.057  -7.032 -30.198  0.00  0.00    +0.000 C 
ATOM      5  O   UNL     1     -43.502  -7.776 -29.351  0.00  0.00    +0.000 OA
ATOM      6  N   UNL     1     -44.664  -7.628 -31.348  0.00  0.00    +0.000 N 
ATOM      7  C   UNL     1     -45.452  -7.039 -32.396  0.00  0.00    +0.000 A 
ATOM      8  C   UNL     1     -45.934  -5.735 -32.511  0.00  0.00    +0.000 A 
ATOM      9  C   UNL     1     -46.560  -5.721 -33.746  0.00  0.00    +0.000 A 
ATOM     10  C   UNL     1     -47.239  -4.553 -34.373  0.00  0.00    +0.000 C 
ATOM     11  N   UNL     1     -46.468  -6.927 -34.333  0.00  0.00    +0.000 NA
ATOM     12  N   UNL     1     -45.814  -7.725 -33.505  0.00  0.00    +0.000 N 
ATOM     13  H   UNL     1     -44.518  -8.597 -31.436  0.00  0.00    +0.000 HD
ATOM     14  C   UNL     1     -45.508  -9.090 -33.829  0.00  0.00    +0.000 A 
ATOM     15  N   UNL     1     -45.137  -9.426 -35.100  0.00  0.00    +0.000 NA
ATOM     16  C   UNL     1     -44.867 -10.724 -35.450  0.00  0.00    +0.000 A 
ATOM     17  N   UNL     1     -44.980 -11.728 -34.528  0.00  0.00    +0.000 NA
ATOM     18  C   UNL     1     -45.362 -11.398 -33.271  0.00  0.00    +0.000 A 
ATOM     19  N   UNL     1     -45.582 -12.243 -32.257  0.00  0.00    +0.000 N 
ATOM     20  C   UNL     1     -46.001 -11.409 -31.266  0.00  0.00    +0.000 A 
ATOM     21  N   UNL     1     -46.052 -10.100 -31.632  0.00  0.00    +0.000 NA
ATOM     22  C   UNL     1     -45.630 -10.127 -32.904  0.00  0.00    +0.000 A 
ATOM     23  H   UNL     1     -45.469 -13.221 -32.234  0.00  0.00    +0.000 HD
ENDROOT
BRANCH   1  27
ATOM     24  C   UNL     1     -43.075  -1.484 -32.867  0.00  0.00    +0.000 A 
ATOM     25  C   UNL     1     -42.871  -2.810 -33.260  0.00  0.00    +0.000 A 
ATOM     26  C   UNL     1     -43.761  -3.811 -32.857  0.00  0.00    +0.000 A 
ATOM     27  C   UNL     1     -44.868  -3.491 -32.057  0.00  0.00    +0.000 A 
ATOM     28  C   UNL     1     -45.070  -2.166 -31.659  0.00  0.00    +0.000 A 
ATOM     29  C   UNL     1     -44.180  -1.166 -32.062  0.00  0.00    +0.000 A 
BRANCH  24  31
ATOM     30  C   UNL     1     -40.919  -0.294 -32.646  0.00  0.00    +0.000 C 
ATOM     31  O   UNL     1     -42.169  -0.507 -33.287  0.00  0.00    +0.000 OA
ENDBRANCH  24  31
ENDBRANCH   1  27
TORSDOF 2
ENDMDL
MODEL 2
REMARK VINA RESULT:      -6.3      5.405      9.186
REMARK  Name = ZINC000031807936
REMARK  2 active torsions:
REMARK  status: ('A' for Active; 'I' for Inactive)
REMARK    1  A    between atoms: C_1  and  C_27
REMARK    2  A    between atoms: C_24  and  O_31
REMARK                            x       y       z     vdW  Elec       q    Type
REMARK                         _______ _______ _______ _____ _____    ______ ____
ROOT
ATOM      1  C   UNL     1     -42.727  -3.216 -33.798  0.00  0.00    +0.000 C 
ATOM      2  S   UNL     1     -41.795  -4.256 -34.968  0.00  0.00    +0.000 S 
ATOM      3  C   UNL     1     -40.850  -5.058 -33.652  0.00  0.00    +0.000 C 
ATOM      4  C   UNL     1     -39.577  -4.331 -33.435  0.00  0.00    +0.000 C 
ATOM      5  O   UNL     1     -38.496  -4.948 -33.619  0.00  0.00    +0.000 OA
ATOM      6  N   UNL     1     -39.529  -2.972 -32.993  0.00  0.00    +0.000 N 
ATOM      7  C   UNL     1     -40.584  -2.011 -32.818  0.00  0.00    +0.000 A 
ATOM      8  C   UNL     1     -41.936  -2.118 -33.142  0.00  0.00    +0.000 A 
ATOM      9  C   UNL     1     -42.481  -0.929 -32.687  0.00  0.00    +0.000 A 
ATOM     10  C   UNL     1     -43.913  -0.529 -32.771  0.00  0.00    +0.000 C 
ATOM     11  N   UNL     1     -41.529  -0.158 -32.133  0.00  0.00    +0.000 NA
ATOM     12  N   UNL     1     -40.381  -0.809 -32.231  0.00  0.00    +0.000 N 
ATOM     13  H   UNL     1     -38.628  -2.640 -32.775  0.00  0.00    +0.000 HD
ATOM     14  C   UNL     1     -39.150  -0.286 -31.710  0.00  0.00    +0.000 A 
ATOM     15  N   UNL     1     -39.139   0.385 -30.519  0.00  0.00    +0.000 NA
ATOM     16  C   UNL     1     -37.986   0.922 -30.009  0.00  0.00    +0.000 A 
ATOM     17  N   UNL     1     -36.808   0.814 -30.694  0.00  0.00    +0.000 NA
ATOM     18  C   UNL     1     -36.820   0.162 -31.881  0.00  0.00    +0.000 A 
ATOM     19  N   UNL     1     -35.785   0.008 -32.716  0.00  0.00    +0.000 N 
ATOM     20  C   UNL     1     -36.351  -0.648 -33.766  0.00  0.00    +0.000 A 
ATOM     21  N   UNL     1     -37.681  -0.893 -33.611  0.00  0.00    +0.000 NA
ATOM     22  C   UNL     1     -37.942  -0.377 -32.402  0.00  0.00    +0.000 A 
ATOM     23  H   UNL     1     -34.850   0.295 -32.599  0.00  0.00    +0.000 HD
ENDROOT
BRANCH   1  27
ATOM     24  C   UNL     1     -45.265  -5.481 -31.147  0.00  0.00    +0.000 A 
ATOM     25  C   UNL     1     -44.044  -4.982 -30.682  0.00  0.00    +0.000 A 
ATOM     26  C   UNL     1     -43.214  -4.244 -31.532  0.00  0.00    +0.000 A 
ATOM     27  C   UNL     1     -43.602  -3.995 -32.857  0.00  0.00    +0.000 A 
ATOM     28  C   UNL     1     -44.820  -4.498 -33.323  0.00  0.00    +0.000 A 
ATOM     29  C   UNL     1     -45.649  -5.237 -32.475  0.00  0.00    +0.000 A 
BRANCH  24  31
ATOM     30  C   UNL     1     -47.399  -6.604 -30.599  0.00  0.00    +0.000 C 
ATOM     31  O   UNL     1     -46.072  -6.215 -30.273  0.00  0.00    +0.000 OA
ENDBRANCH  24  31
ENDBRANCH   1  27
TORSDOF 2
ENDMDL
MODEL 3
REMARK VINA RESULT:      -6.3     13.705     17.206
REMARK  Name = ZINC000031807936
REMARK  2 active torsions:
REMARK  status: ('A' for Active; 'I' for Inactive)
REMARK    1  A    between atoms: C_1  and  C_27
REMARK    2  A    between atoms: C_24  and  O_31
REMARK                            x       y       z     vdW  Elec       q    Type
REMARK                         _______ _______ _______ _____ _____    ______ ____
ROOT
ATOM      1  C   UNL     1     -45.358 -17.917 -22.386  0.00  0.00    +0.000 C 
ATOM      2  S   UNL     1     -45.358 -16.872 -23.877  0.00  0.00    +0.000 S 
ATOM      3  C   UNL     1     -43.784 -16.094 -23.449  0.00  0.00    +0.000 C 
ATOM      4  C   UNL     1     -44.032 -14.844 -22.692  0.00  0.00    +0.000 C 
ATOM      5  O   UNL     1     -43.627 -13.758 -23.179  0.00  0.00    +0.000 OA
ATOM      6  N   UNL     1     -44.679 -14.829 -21.417  0.00  0.00    +0.000 N 
ATOM      7  C   UNL     1     -45.331 -15.885 -20.690  0.00  0.00    +0.000 A 
ATOM      8  C   UNL     1     -45.604 -17.193 -21.091  0.00  0.00    +0.000 A 
ATOM      9  C   UNL     1     -46.176 -17.770 -19.970  0.00  0.00    +0.000 A 
ATOM     10  C   UNL     1     -46.646 -19.178 -19.849  0.00  0.00    +0.000 C 
ATOM     11  N   UNL     1     -46.247 -16.877 -18.967  0.00  0.00    +0.000 NA
ATOM     12  N   UNL     1     -45.753 -15.734 -19.414  0.00  0.00    +0.000 N 
ATOM     13  H   UNL     1     -44.680 -13.955 -20.964  0.00  0.00    +0.000 HD
ATOM     14  C   UNL     1     -45.647 -14.565 -18.589  0.00  0.00    +0.000 A 
ATOM     15  N   UNL     1     -45.285 -14.681 -17.276  0.00  0.00    +0.000 NA
ATOM     16  C   UNL     1     -45.204 -13.587 -16.454  0.00  0.00    +0.000 A 
ATOM     17  N   UNL     1     -45.502 -12.340 -16.928  0.00  0.00    +0.000 NA
ATOM     18  C   UNL     1     -45.874 -12.224 -18.225  0.00  0.00    +0.000 A 
ATOM     19  N   UNL     1     -46.257 -11.103 -18.848  0.00  0.00    +0.000 N 
ATOM     20  C   UNL     1     -46.579 -11.554 -20.091  0.00  0.00    +0.000 A 
ATOM     21  N   UNL     1     -46.417 -12.896 -20.250  0.00  0.00    +0.000 NA
ATOM     22  C   UNL     1     -45.958 -13.287 -19.053  0.00  0.00    +0.000 A 
ATOM     23  H   UNL     1     -46.294 -10.184 -18.495  0.00  0.00    +0.000 HD
ENDROOT
BRANCH   1  27
ATOM     24  C   UNL     1     -42.108 -20.751 -22.306  0.00  0.00    +0.000 A 
ATOM     25  C   UNL     1     -42.307 -19.892 -21.222  0.00  0.00    +0.000 A 
ATOM     26  C   UNL     1     -43.359 -18.971 -21.235  0.00  0.00    +0.000 A 
ATOM     27  C   UNL     1     -44.226 -18.905 -22.336  0.00  0.00    +0.000 A 
ATOM     28  C   UNL     1     -44.024 -19.760 -23.423  0.00  0.00    +0.000 A 
ATOM     29  C   UNL     1     -42.972 -20.679 -23.411  0.00  0.00    +0.000 A 
BRANCH  24  31
ATOM     30  C   UNL     1     -40.882 -22.597 -21.208  0.00  0.00    +0.000 C 
ATOM     31  O   UNL     1     -41.047 -21.660 -22.263  0.00  0.00    +0.000 OA
ENDBRANCH  24  31
ENDBRANCH   1  27
TORSDOF 2
ENDMDL
