MODEL 1
REMARK VINA RESULT:      -6.1      0.000      0.000
REMARK  Name = ZINC000007171592 ZINC07171592 PubChem-8287314
REMARK  5 active torsions:
REMARK  status: ('A' for Active; 'I' for Inactive)
REMARK    1  A    between atoms: C_2  and  C_3
REMARK    2  A    between atoms: C_2  and  S_17
REMARK    3  A    between atoms: S_17  and  C_18
REMARK    4  A    between atoms: C_21  and  C_29
REMARK    5  A    between atoms: N_22  and  C_23
REMARK                            x       y       z     vdW  Elec       q    Type
REMARK                         _______ _______ _______ _____ _____    ______ ____
ROOT
ATOM      1  C   UNL     1     -46.278  -5.453 -28.119  0.00  0.00    +0.000 C 
ATOM      2  C   UNL     1     -46.108  -5.610 -29.623  0.00  0.00    +0.000 C 
ENDROOT
BRANCH   2   3
ATOM      3  C   UNL     1     -46.009  -7.051 -30.047  0.00  0.00    +0.000 C 
ATOM      4  O   UNL     1     -47.004  -7.814 -29.906  0.00  0.00    +0.000 OA
ATOM      5  N   UNL     1     -44.776  -7.566 -30.591  0.00  0.00    +0.000 N 
ATOM      6  C   UNL     1     -43.536  -6.820 -30.336  0.00  0.00    +0.000 C 
ATOM      7  C   UNL     1     -42.354  -7.734 -30.230  0.00  0.00    +0.000 C 
ATOM      8  O   UNL     1     -41.340  -7.374 -29.579  0.00  0.00    +0.000 OA
ATOM      9  N   UNL     1     -42.348  -8.980 -30.928  0.00  0.00    +0.000 N 
ATOM     10  C   UNL     1     -43.526  -9.443 -31.586  0.00  0.00    +0.000 A 
ATOM     11  C   UNL     1     -44.739  -8.747 -31.425  0.00  0.00    +0.000 A 
ATOM     12  C   UNL     1     -45.885  -9.215 -32.088  0.00  0.00    +0.000 A 
ATOM     13  C   UNL     1     -45.826 -10.362 -32.885  0.00  0.00    +0.000 A 
ATOM     14  C   UNL     1     -44.620 -11.053 -33.027  0.00  0.00    +0.000 A 
ATOM     15  C   UNL     1     -43.471 -10.594 -32.378  0.00  0.00    +0.000 A 
ATOM     16  H   UNL     1     -41.527  -9.522 -30.953  0.00  0.00    +0.000 HD
ENDBRANCH   2   3
BRANCH   2  17
ATOM     17  S   UNL     1     -47.495  -4.807 -30.482  0.00  0.00    +0.000 S 
BRANCH  17  18
ATOM     18  C   UNL     1     -46.437  -3.530 -31.167  0.00  0.00    +0.000 A 
ATOM     19  N   UNL     1     -46.128  -2.405 -30.495  0.00  0.00    +0.000 NA
ATOM     20  N   UNL     1     -45.381  -1.667 -31.300  0.00  0.00    +0.000 NA
ATOM     21  C   UNL     1     -45.257  -2.344 -32.461  0.00  0.00    +0.000 A 
ATOM     22  N   UNL     1     -45.902  -3.532 -32.407  0.00  0.00    +0.000 N 
BRANCH  22  23
ATOM     23  C   UNL     1     -45.972  -4.561 -33.415  0.00  0.00    +0.000 A 
ATOM     24  C   UNL     1     -47.055  -4.615 -34.306  0.00  0.00    +0.000 A 
ATOM     25  C   UNL     1     -47.123  -5.611 -35.284  0.00  0.00    +0.000 A 
ATOM     26  C   UNL     1     -46.109  -6.566 -35.380  0.00  0.00    +0.000 A 
ATOM     27  C   UNL     1     -45.027  -6.525 -34.496  0.00  0.00    +0.000 A 
ATOM     28  C   UNL     1     -44.960  -5.528 -33.520  0.00  0.00    +0.000 A 
ENDBRANCH  22  23
BRANCH  21  29
ATOM     29  C   UNL     1     -44.416  -1.874 -33.612  0.00  0.00    +0.000 C 
ATOM     30  C   UNL     1     -42.939  -2.110 -33.348  0.00  0.00    +0.000 C 
ATOM     31  C   UNL     1     -43.528  -0.734 -33.151  0.00  0.00    +0.000 C 
ENDBRANCH  21  29
ENDBRANCH  17  18
ENDBRANCH   2  17
TORSDOF 5
ENDMDL
MODEL 2
REMARK VINA RESULT:      -6.0      2.279      2.662
REMARK  Name = ZINC000007171592 ZINC07171592 PubChem-8287314
REMARK  5 active torsions:
REMARK  status: ('A' for Active; 'I' for Inactive)
REMARK    1  A    between atoms: C_2  and  C_3
REMARK    2  A    between atoms: C_2  and  S_17
REMARK    3  A    between atoms: S_17  and  C_18
REMARK    4  A    between atoms: C_21  and  C_29
REMARK    5  A    between atoms: N_22  and  C_23
REMARK                            x       y       z     vdW  Elec       q    Type
REMARK                         _______ _______ _______ _____ _____    ______ ____
ROOT
ATOM      1  C   UNL     1     -44.223  -5.746 -29.567  0.00  0.00    +0.000 C 
ATOM      2  C   UNL     1     -45.069  -6.718 -30.376  0.00  0.00    +0.000 C 
ENDROOT
BRANCH   2   3
ATOM      3  C   UNL     1     -45.061  -8.109 -29.802  0.00  0.00    +0.000 C 
ATOM      4  O   UNL     1     -44.769  -8.282 -28.586  0.00  0.00    +0.000 OA
ATOM      5  N   UNL     1     -45.363  -9.244 -30.640  0.00  0.00    +0.000 N 
ATOM      6  C   UNL     1     -45.257  -9.083 -32.096  0.00  0.00    +0.000 C 
ATOM      7  C   UNL     1     -44.827 -10.354 -32.763  0.00  0.00    +0.000 C 
ATOM      8  O   UNL     1     -44.246 -10.312 -33.877  0.00  0.00    +0.000 OA
ATOM      9  N   UNL     1     -45.142 -11.614 -32.170  0.00  0.00    +0.000 N 
ATOM     10  C   UNL     1     -45.711 -11.674 -30.863  0.00  0.00    +0.000 A 
ATOM     11  C   UNL     1     -45.825 -10.501 -30.093  0.00  0.00    +0.000 A 
ATOM     12  C   UNL     1     -46.396 -10.580 -28.812  0.00  0.00    +0.000 A 
ATOM     13  C   UNL     1     -46.830 -11.807 -28.303  0.00  0.00    +0.000 A 
ATOM     14  C   UNL     1     -46.699 -12.968 -29.070  0.00  0.00    +0.000 A 
ATOM     15  C   UNL     1     -46.140 -12.902 -30.348  0.00  0.00    +0.000 A 
ATOM     16  H   UNL     1     -44.964 -12.446 -32.665  0.00  0.00    +0.000 HD
ENDBRANCH   2   3
BRANCH   2  17
ATOM     17  S   UNL     1     -46.776  -6.102 -30.481  0.00  0.00    +0.000 S 
BRANCH  17  18
ATOM     18  C   UNL     1     -46.248  -4.506 -31.107  0.00  0.00    +0.000 A 
ATOM     19  N   UNL     1     -46.358  -3.372 -30.390  0.00  0.00    +0.000 NA
ATOM     20  N   UNL     1     -45.928  -2.385 -31.160  0.00  0.00    +0.000 NA
ATOM     21  C   UNL     1     -45.576  -2.927 -32.344  0.00  0.00    +0.000 A 
ATOM     22  N   UNL     1     -45.753  -4.269 -32.342  0.00  0.00    +0.000 N 
BRANCH  22  23
ATOM     23  C   UNL     1     -45.457  -5.215 -33.389  0.00  0.00    +0.000 A 
ATOM     24  C   UNL     1     -46.472  -5.682 -34.239  0.00  0.00    +0.000 A 
ATOM     25  C   UNL     1     -46.185  -6.598 -35.254  0.00  0.00    +0.000 A 
ATOM     26  C   UNL     1     -44.878  -7.059 -35.430  0.00  0.00    +0.000 A 
ATOM     27  C   UNL     1     -43.860  -6.605 -34.588  0.00  0.00    +0.000 A 
ATOM     28  C   UNL     1     -44.148  -5.688 -33.574  0.00  0.00    +0.000 A 
ENDBRANCH  22  23
BRANCH  21  29
ATOM     29  C   UNL     1     -44.964  -2.144 -33.470  0.00  0.00    +0.000 C 
ATOM     30  C   UNL     1     -43.450  -2.098 -33.350  0.00  0.00    +0.000 C 
ATOM     31  C   UNL     1     -44.276  -0.914 -32.907  0.00  0.00    +0.000 C 
ENDBRANCH  21  29
ENDBRANCH  17  18
ENDBRANCH   2  17
TORSDOF 5
ENDMDL
MODEL 3
REMARK VINA RESULT:      -5.9      2.831      6.738
REMARK  Name = ZINC000007171592 ZINC07171592 PubChem-8287314
REMARK  5 active torsions:
REMARK  status: ('A' for Active; 'I' for Inactive)
REMARK    1  A    between atoms: C_2  and  C_3
REMARK    2  A    between atoms: C_2  and  S_17
REMARK    3  A    between atoms: S_17  and  C_18
REMARK    4  A    between atoms: C_21  and  C_29
REMARK    5  A    between atoms: N_22  and  C_23
REMARK                            x       y       z     vdW  Elec       q    Type
REMARK                         _______ _______ _______ _____ _____    ______ ____
ROOT
ATOM      1  C   UNL     1     -44.843  -7.738 -31.770  0.00  0.00    +0.000 C 
ATOM      2  C   UNL     1     -45.354  -6.534 -30.991  0.00  0.00    +0.000 C 
ENDROOT
BRANCH   2   3
ATOM      3  C   UNL     1     -45.132  -5.237 -31.722  0.00  0.00    +0.000 C 
ATOM      4  O   UNL     1     -46.051  -4.759 -32.442  0.00  0.00    +0.000 OA
ATOM      5  N   UNL     1     -43.866  -4.551 -31.619  0.00  0.00    +0.000 N 
ATOM      6  C   UNL     1     -42.695  -5.314 -31.167  0.00  0.00    +0.000 C 
ATOM      7  C   UNL     1     -41.433  -4.819 -31.805  0.00  0.00    +0.000 C 
ATOM      8  O   UNL     1     -40.445  -5.588 -31.921  0.00  0.00    +0.000 OA
ATOM      9  N   UNL     1     -41.326  -3.455 -32.213  0.00  0.00    +0.000 N 
ATOM     10  C   UNL     1     -42.468  -2.600 -32.177  0.00  0.00    +0.000 A 
ATOM     11  C   UNL     1     -43.736  -3.135 -31.884  0.00  0.00    +0.000 A 
ATOM     12  C   UNL     1     -44.846  -2.275 -31.846  0.00  0.00    +0.000 A 
ATOM     13  C   UNL     1     -44.697  -0.912 -32.110  0.00  0.00    +0.000 A 
ATOM     14  C   UNL     1     -43.435  -0.392 -32.414  0.00  0.00    +0.000 A 
ATOM     15  C   UNL     1     -42.322  -1.236 -32.448  0.00  0.00    +0.000 A 
ATOM     16  H   UNL     1     -40.460  -3.103 -32.521  0.00  0.00    +0.000 HD
ENDBRANCH   2   3
BRANCH   2  17
ATOM     17  S   UNL     1     -47.123  -6.745 -30.630  0.00  0.00    +0.000 S 
BRANCH  17  18
ATOM     18  C   UNL     1     -46.947  -6.079 -28.974  0.00  0.00    +0.000 A 
ATOM     19  N   UNL     1     -47.200  -4.790 -28.680  0.00  0.00    +0.000 NA
ATOM     20  N   UNL     1     -46.923  -4.625 -27.396  0.00  0.00    +0.000 NA
ATOM     21  C   UNL     1     -46.489  -5.814 -26.926  0.00  0.00    +0.000 A 
ATOM     22  N   UNL     1     -46.503  -6.759 -27.894  0.00  0.00    +0.000 N 
BRANCH  22  23
ATOM     23  C   UNL     1     -46.160  -8.156 -27.790  0.00  0.00    +0.000 A 
ATOM     24  C   UNL     1     -44.831  -8.578 -27.945  0.00  0.00    +0.000 A 
ATOM     25  C   UNL     1     -44.497  -9.932 -27.842  0.00  0.00    +0.000 A 
ATOM     26  C   UNL     1     -45.492 -10.878 -27.586  0.00  0.00    +0.000 A 
ATOM     27  C   UNL     1     -46.820 -10.470 -27.433  0.00  0.00    +0.000 A 
ATOM     28  C   UNL     1     -47.151  -9.117 -27.535  0.00  0.00    +0.000 A 
ENDBRANCH  22  23
BRANCH  21  29
ATOM     29  C   UNL     1     -46.145  -6.064 -25.486  0.00  0.00    +0.000 C 
ATOM     30  C   UNL     1     -47.359  -6.538 -24.704  0.00  0.00    +0.000 C 
ATOM     31  C   UNL     1     -46.920  -5.097 -24.611  0.00  0.00    +0.000 C 
ENDBRANCH  21  29
ENDBRANCH  17  18
ENDBRANCH   2  17
TORSDOF 5
ENDMDL
