MODEL 1
REMARK VINA RESULT:      -6.2      0.000      0.000
REMARK  Name = ZINC000018195878 ZINC18195878
REMARK  2 active torsions:
REMARK  status: ('A' for Active; 'I' for Inactive)
REMARK    1  A    between atoms: C_6  and  C_21
REMARK    2  A    between atoms: C_11  and  O_12
REMARK                            x       y       z     vdW  Elec       q    Type
REMARK                         _______ _______ _______ _____ _____    ______ ____
ROOT
ATOM      1  C   UNL     1     -43.663  -0.563 -33.433  0.00  0.00    +0.000 C 
ATOM      2  C   UNL     1     -44.009  -1.824 -32.670  0.00  0.00    +0.000 C 
ATOM      3  C   UNL     1     -44.615  -2.834 -33.646  0.00  0.00    +0.000 C 
ATOM      4  C   UNL     1     -45.236  -4.031 -32.972  0.00  0.00    +0.000 C 
ATOM      5  C   UNL     1     -45.689  -3.970 -31.684  0.00  0.00    +0.000 C 
ATOM      6  C   UNL     1     -46.273  -5.194 -30.967  0.00  0.00    +0.000 C 
ATOM      7  C   UNL     1     -46.535  -6.320 -31.920  0.00  0.00    +0.000 A 
ATOM      8  C   UNL     1     -46.088  -6.329 -33.197  0.00  0.00    +0.000 A 
ATOM      9  N   UNL     1     -46.399  -7.479 -33.819  0.00  0.00    +0.000 N 
ATOM     10  N   UNL     1     -47.048  -8.234 -32.936  0.00  0.00    +0.000 NA
ATOM     11  C   UNL     1     -47.134  -7.546 -31.777  0.00  0.00    +0.000 A 
ATOM     12  N   UNL     1     -45.404  -5.219 -33.766  0.00  0.00    +0.000 N 
ATOM     13  C   UNL     1     -45.591  -2.694 -30.933  0.00  0.00    +0.000 C 
ATOM     14  O   UNL     1     -46.039  -2.611 -29.760  0.00  0.00    +0.000 OA
ATOM     15  C   UNL     1     -45.010  -1.471 -31.574  0.00  0.00    +0.000 C 
ATOM     16  C   UNL     1     -42.730  -2.380 -32.061  0.00  0.00    +0.000 C 
ATOM     17  H   UNL     1     -46.188  -7.718 -34.750  0.00  0.00    +0.000 HD
ATOM     18  H   UNL     1     -45.054  -5.264 -34.684  0.00  0.00    +0.000 HD
ENDROOT
BRANCH   6  19
ATOM     19  C   UNL     1     -45.377  -5.651 -29.851  0.00  0.00    +0.000 A 
ATOM     20  C   UNL     1     -45.928  -5.896 -28.591  0.00  0.00    +0.000 A 
ATOM     21  C   UNL     1     -45.100  -6.330 -27.554  0.00  0.00    +0.000 A 
ATOM     22  N   UNL     1     -43.769  -6.513 -27.773  0.00  0.00    +0.000 NA
ATOM     23  C   UNL     1     -43.211  -6.286 -28.993  0.00  0.00    +0.000 A 
ATOM     24  C   UNL     1     -44.005  -5.852 -30.056  0.00  0.00    +0.000 A 
ENDBRANCH   6  19
BRANCH  11  25
ATOM     25  O   UNL     1     -47.736  -8.032 -30.624  0.00  0.00    +0.000 OA
ATOM     26  H   UNL     1     -48.647  -7.874 -30.467  0.00  0.00    +0.000 HD
ENDBRANCH  11  25
TORSDOF 2
ENDMDL
MODEL 2
REMARK VINA RESULT:      -6.0     13.704     16.131
REMARK  Name = ZINC000018195878 ZINC18195878
REMARK  2 active torsions:
REMARK  status: ('A' for Active; 'I' for Inactive)
REMARK    1  A    between atoms: C_6  and  C_21
REMARK    2  A    between atoms: C_11  and  O_12
REMARK                            x       y       z     vdW  Elec       q    Type
REMARK                         _______ _______ _______ _____ _____    ______ ____
ROOT
ATOM      1  C   UNL     1     -46.372 -15.472 -18.031  0.00  0.00    +0.000 C 
ATOM      2  C   UNL     1     -45.714 -16.183 -19.194  0.00  0.00    +0.000 C 
ATOM      3  C   UNL     1     -46.119 -15.478 -20.490  0.00  0.00    +0.000 C 
ATOM      4  C   UNL     1     -45.742 -16.237 -21.736  0.00  0.00    +0.000 C 
ATOM      5  C   UNL     1     -45.569 -17.592 -21.723  0.00  0.00    +0.000 C 
ATOM      6  C   UNL     1     -45.132 -18.370 -22.970  0.00  0.00    +0.000 C 
ATOM      7  C   UNL     1     -45.207 -17.524 -24.204  0.00  0.00    +0.000 A 
ATOM      8  C   UNL     1     -45.405 -16.186 -24.174  0.00  0.00    +0.000 A 
ATOM      9  N   UNL     1     -45.365 -15.655 -25.408  0.00  0.00    +0.000 N 
ATOM     10  N   UNL     1     -45.129 -16.655 -26.253  0.00  0.00    +0.000 NA
ATOM     11  C   UNL     1     -45.026 -17.796 -25.537  0.00  0.00    +0.000 A 
ATOM     12  N   UNL     1     -45.648 -15.486 -22.960  0.00  0.00    +0.000 N 
ATOM     13  C   UNL     1     -45.777 -18.344 -20.461  0.00  0.00    +0.000 C 
ATOM     14  O   UNL     1     -45.660 -19.597 -20.440  0.00  0.00    +0.000 OA
ATOM     15  C   UNL     1     -46.184 -17.636 -19.205  0.00  0.00    +0.000 C 
ATOM     16  C   UNL     1     -44.206 -16.115 -19.005  0.00  0.00    +0.000 C 
ATOM     17  H   UNL     1     -45.488 -14.707 -25.643  0.00  0.00    +0.000 HD
ATOM     18  H   UNL     1     -45.750 -14.507 -22.958  0.00  0.00    +0.000 HD
ENDROOT
BRANCH   6  19
ATOM     19  C   UNL     1     -43.748 -18.932 -22.806  0.00  0.00    +0.000 A 
ATOM     20  C   UNL     1     -43.500 -20.255 -23.181  0.00  0.00    +0.000 A 
ATOM     21  C   UNL     1     -42.213 -20.777 -23.037  0.00  0.00    +0.000 A 
ATOM     22  N   UNL     1     -41.212 -20.002 -22.538  0.00  0.00    +0.000 NA
ATOM     23  C   UNL     1     -41.429 -18.710 -22.170  0.00  0.00    +0.000 A 
ATOM     24  C   UNL     1     -42.701 -18.150 -22.299  0.00  0.00    +0.000 A 
ENDBRANCH   6  19
BRANCH  11  25
ATOM     25  O   UNL     1     -44.766 -19.043 -26.089  0.00  0.00    +0.000 OA
ATOM     26  H   UNL     1     -45.196 -19.805 -25.753  0.00  0.00    +0.000 HD
ENDBRANCH  11  25
TORSDOF 2
ENDMDL
MODEL 3
REMARK VINA RESULT:      -5.9      2.319      5.799
REMARK  Name = ZINC000018195878 ZINC18195878
REMARK  2 active torsions:
REMARK  status: ('A' for Active; 'I' for Inactive)
REMARK    1  A    between atoms: C_6  and  C_21
REMARK    2  A    between atoms: C_11  and  O_12
REMARK                            x       y       z     vdW  Elec       q    Type
REMARK                         _______ _______ _______ _____ _____    ______ ____
ROOT
ATOM      1  C   UNL     1     -44.427  -8.016 -27.702  0.00  0.00    +0.000 C 
ATOM      2  C   UNL     1     -44.616  -7.168 -28.942  0.00  0.00    +0.000 C 
ATOM      3  C   UNL     1     -43.310  -6.424 -29.228  0.00  0.00    +0.000 C 
ATOM      4  C   UNL     1     -43.441  -5.354 -30.282  0.00  0.00    +0.000 C 
ATOM      5  C   UNL     1     -44.640  -4.754 -30.545  0.00  0.00    +0.000 C 
ATOM      6  C   UNL     1     -44.800  -3.703 -31.651  0.00  0.00    +0.000 C 
ATOM      7  C   UNL     1     -43.472  -3.239 -32.169  0.00  0.00    +0.000 A 
ATOM      8  C   UNL     1     -42.304  -3.849 -31.862  0.00  0.00    +0.000 A 
ATOM      9  N   UNL     1     -41.269  -3.281 -32.506  0.00  0.00    +0.000 N 
ATOM     10  N   UNL     1     -41.768  -2.296 -33.248  0.00  0.00    +0.000 NA
ATOM     11  C   UNL     1     -43.105  -2.261 -33.058  0.00  0.00    +0.000 A 
ATOM     12  N   UNL     1     -42.235  -4.933 -30.945  0.00  0.00    +0.000 N 
ATOM     13  C   UNL     1     -45.841  -5.143 -29.766  0.00  0.00    +0.000 C 
ATOM     14  O   UNL     1     -46.944  -4.573 -29.970  0.00  0.00    +0.000 OA
ATOM     15  C   UNL     1     -45.751  -6.180 -28.688  0.00  0.00    +0.000 C 
ATOM     16  C   UNL     1     -44.964  -8.089 -30.102  0.00  0.00    +0.000 C 
ATOM     17  H   UNL     1     -40.323  -3.543 -32.440  0.00  0.00    +0.000 HD
ATOM     18  H   UNL     1     -41.380  -5.386 -30.767  0.00  0.00    +0.000 HD
ENDROOT
BRANCH   6  19
ATOM     19  C   UNL     1     -45.647  -4.221 -32.778  0.00  0.00    +0.000 A 
ATOM     20  C   UNL     1     -45.301  -5.426 -33.395  0.00  0.00    +0.000 A 
ATOM     21  C   UNL     1     -46.092  -5.914 -34.437  0.00  0.00    +0.000 A 
ATOM     22  N   UNL     1     -47.190  -5.221 -34.843  0.00  0.00    +0.000 NA
ATOM     23  C   UNL     1     -47.550  -4.048 -34.256  0.00  0.00    +0.000 A 
ATOM     24  C   UNL     1     -46.786  -3.527 -33.210  0.00  0.00    +0.000 A 
ENDBRANCH   6  19
BRANCH  11  25
ATOM     25  O   UNL     1     -43.959  -1.365 -33.687  0.00  0.00    +0.000 OA
ATOM     26  H   UNL     1     -44.053  -1.382 -34.620  0.00  0.00    +0.000 HD
ENDBRANCH  11  25
TORSDOF 2
ENDMDL
