MODEL 1
REMARK VINA RESULT:      -7.0      0.000      0.000
REMARK  Name = ZINC000031811572
REMARK  1 active torsions:
REMARK  status: ('A' for Active; 'I' for Inactive)
REMARK    1  A    between atoms: C_7  and  C_24
REMARK                            x       y       z     vdW  Elec       q    Type
REMARK                         _______ _______ _______ _____ _____    ______ ____
ROOT
ATOM      1  C   UNL     1     -47.348  -3.914 -33.977  0.00  0.00    +0.000 C 
ATOM      2  C   UNL     1     -46.615  -5.194 -33.775  0.00  0.00    +0.000 A 
ATOM      3  N   UNL     1     -46.791  -6.280 -34.548  0.00  0.00    +0.000 NA
ATOM      4  N   UNL     1     -45.991  -7.231 -34.093  0.00  0.00    +0.000 N 
ATOM      5  C   UNL     1     -45.272  -6.761 -33.047  0.00  0.00    +0.000 A 
ATOM      6  C   UNL     1     -45.663  -5.446 -32.801  0.00  0.00    +0.000 A 
ATOM      7  C   UNL     1     -45.198  -4.442 -31.785  0.00  0.00    +0.000 C 
ATOM      8  S   UNL     1     -44.588  -5.125 -30.213  0.00  0.00    +0.000 S 
ATOM      9  C   UNL     1     -43.083  -5.765 -30.978  0.00  0.00    +0.000 C 
ATOM     10  C   UNL     1     -43.294  -7.170 -31.403  0.00  0.00    +0.000 C 
ATOM     11  O   UNL     1     -42.573  -8.065 -30.892  0.00  0.00    +0.000 OA
ATOM     12  N   UNL     1     -44.258  -7.543 -32.393  0.00  0.00    +0.000 N 
ATOM     13  H   UNL     1     -44.221  -8.487 -32.671  0.00  0.00    +0.000 HD
ATOM     14  C   UNL     1     -45.899  -8.523 -34.709  0.00  0.00    +0.000 A 
ATOM     15  N   UNL     1     -46.004  -8.643 -36.067  0.00  0.00    +0.000 NA
ATOM     16  C   UNL     1     -45.949  -9.866 -36.685  0.00  0.00    +0.000 A 
ATOM     17  N   UNL     1     -45.802 -11.009 -35.949  0.00  0.00    +0.000 NA
ATOM     18  C   UNL     1     -45.711 -10.893 -34.603  0.00  0.00    +0.000 A 
ATOM     19  N   UNL     1     -45.623 -11.895 -33.720  0.00  0.00    +0.000 N 
ATOM     20  C   UNL     1     -45.629 -11.237 -32.529  0.00  0.00    +0.000 A 
ATOM     21  N   UNL     1     -45.721  -9.884 -32.646  0.00  0.00    +0.000 NA
ATOM     22  C   UNL     1     -45.761  -9.701 -33.972  0.00  0.00    +0.000 A 
ATOM     23  H   UNL     1     -45.568 -12.864 -33.890  0.00  0.00    +0.000 HD
ENDROOT
BRANCH   7  24
ATOM     24  C   UNL     1     -44.385  -3.287 -32.321  0.00  0.00    +0.000 A 
ATOM     25  C   UNL     1     -43.473  -3.435 -33.387  0.00  0.00    +0.000 A 
ATOM     26  F   UNL     1     -43.284  -4.634 -33.992  0.00  0.00    +0.000 F 
ATOM     27  C   UNL     1     -42.742  -2.334 -33.842  0.00  0.00    +0.000 A 
ATOM     28  C   UNL     1     -42.908  -1.084 -33.246  0.00  0.00    +0.000 A 
ATOM     29  C   UNL     1     -43.808  -0.929 -32.190  0.00  0.00    +0.000 A 
ATOM     30  C   UNL     1     -44.544  -2.023 -31.728  0.00  0.00    +0.000 A 
ATOM     31  F   UNL     1     -45.413  -1.846 -30.701  0.00  0.00    +0.000 F 
ENDBRANCH   7  24
TORSDOF 1
ENDMDL
MODEL 2
REMARK VINA RESULT:      -6.9      4.716      7.153
REMARK  Name = ZINC000031811572
REMARK  1 active torsions:
REMARK  status: ('A' for Active; 'I' for Inactive)
REMARK    1  A    between atoms: C_7  and  C_24
REMARK                            x       y       z     vdW  Elec       q    Type
REMARK                         _______ _______ _______ _____ _____    ______ ____
ROOT
ATOM      1  C   UNL     1     -47.417  -4.551 -26.221  0.00  0.00    +0.000 C 
ATOM      2  C   UNL     1     -46.950  -4.775 -27.617  0.00  0.00    +0.000 A 
ATOM      3  N   UNL     1     -46.792  -3.786 -28.514  0.00  0.00    +0.000 NA
ATOM      4  N   UNL     1     -46.372  -4.332 -29.644  0.00  0.00    +0.000 N 
ATOM      5  C   UNL     1     -46.225  -5.667 -29.479  0.00  0.00    +0.000 A 
ATOM      6  C   UNL     1     -46.609  -5.993 -28.179  0.00  0.00    +0.000 A 
ATOM      7  C   UNL     1     -46.637  -7.307 -27.449  0.00  0.00    +0.000 C 
ATOM      8  S   UNL     1     -46.910  -8.782 -28.478  0.00  0.00    +0.000 S 
ATOM      9  C   UNL     1     -45.263  -8.679 -29.211  0.00  0.00    +0.000 C 
ATOM     10  C   UNL     1     -45.323  -7.899 -30.472  0.00  0.00    +0.000 C 
ATOM     11  O   UNL     1     -44.995  -8.470 -31.544  0.00  0.00    +0.000 OA
ATOM     12  N   UNL     1     -45.704  -6.521 -30.513  0.00  0.00    +0.000 N 
ATOM     13  H   UNL     1     -45.593  -6.087 -31.389  0.00  0.00    +0.000 HD
ATOM     14  C   UNL     1     -46.067  -3.555 -30.811  0.00  0.00    +0.000 A 
ATOM     15  N   UNL     1     -45.506  -2.315 -30.681  0.00  0.00    +0.000 NA
ATOM     16  C   UNL     1     -45.230  -1.535 -31.774  0.00  0.00    +0.000 A 
ATOM     17  N   UNL     1     -45.526  -1.976 -33.034  0.00  0.00    +0.000 NA
ATOM     18  C   UNL     1     -46.095  -3.198 -33.164  0.00  0.00    +0.000 A 
ATOM     19  N   UNL     1     -46.506  -3.771 -34.302  0.00  0.00    +0.000 N 
ATOM     20  C   UNL     1     -47.051  -4.937 -33.863  0.00  0.00    +0.000 A 
ATOM     21  N   UNL     1     -46.995  -5.099 -32.512  0.00  0.00    +0.000 NA
ATOM     22  C   UNL     1     -46.375  -3.985 -32.103  0.00  0.00    +0.000 A 
ATOM     23  H   UNL     1     -46.432  -3.432 -35.224  0.00  0.00    +0.000 HD
ENDROOT
BRANCH   7  24
ATOM     24  C   UNL     1     -45.601  -7.483 -26.366  0.00  0.00    +0.000 A 
ATOM     25  C   UNL     1     -44.272  -7.029 -26.509  0.00  0.00    +0.000 A 
ATOM     26  F   UNL     1     -43.860  -6.400 -27.637  0.00  0.00    +0.000 F 
ATOM     27  C   UNL     1     -43.351  -7.222 -25.476  0.00  0.00    +0.000 A 
ATOM     28  C   UNL     1     -43.736  -7.864 -24.299  0.00  0.00    +0.000 A 
ATOM     29  C   UNL     1     -45.048  -8.318 -24.151  0.00  0.00    +0.000 A 
ATOM     30  C   UNL     1     -45.978  -8.130 -25.176  0.00  0.00    +0.000 A 
ATOM     31  F   UNL     1     -47.246  -8.579 -25.006  0.00  0.00    +0.000 F 
ENDBRANCH   7  24
TORSDOF 1
ENDMDL
MODEL 3
REMARK VINA RESULT:      -6.6      2.675      3.576
REMARK  Name = ZINC000031811572
REMARK  1 active torsions:
REMARK  status: ('A' for Active; 'I' for Inactive)
REMARK    1  A    between atoms: C_7  and  C_24
REMARK                            x       y       z     vdW  Elec       q    Type
REMARK                         _______ _______ _______ _____ _____    ______ ____
ROOT
ATOM      1  C   UNL     1     -45.914  -6.631 -34.743  0.00  0.00    +0.000 C 
ATOM      2  C   UNL     1     -45.801  -7.212 -33.377  0.00  0.00    +0.000 A 
ATOM      3  N   UNL     1     -45.361  -8.460 -33.136  0.00  0.00    +0.000 NA
ATOM      4  N   UNL     1     -45.390  -8.650 -31.827  0.00  0.00    +0.000 N 
ATOM      5  C   UNL     1     -45.815  -7.523 -31.211  0.00  0.00    +0.000 A 
ATOM      6  C   UNL     1     -46.108  -6.573 -32.188  0.00  0.00    +0.000 A 
ATOM      7  C   UNL     1     -46.598  -5.156 -32.084  0.00  0.00    +0.000 C 
ATOM      8  S   UNL     1     -47.631  -4.776 -30.636  0.00  0.00    +0.000 S 
ATOM      9  C   UNL     1     -46.229  -4.881 -29.503  0.00  0.00    +0.000 C 
ATOM     10  C   UNL     1     -46.128  -6.257 -28.957  0.00  0.00    +0.000 C 
ATOM     11  O   UNL     1     -46.240  -6.417 -27.714  0.00  0.00    +0.000 OA
ATOM     12  N   UNL     1     -45.874  -7.400 -29.779  0.00  0.00    +0.000 N 
ATOM     13  H   UNL     1     -45.714  -8.237 -29.286  0.00  0.00    +0.000 HD
ATOM     14  C   UNL     1     -44.952  -9.871 -31.214  0.00  0.00    +0.000 A 
ATOM     15  N   UNL     1     -43.896 -10.561 -31.741  0.00  0.00    +0.000 NA
ATOM     16  C   UNL     1     -43.470 -11.746 -31.197  0.00  0.00    +0.000 A 
ATOM     17  N   UNL     1     -44.109 -12.280 -30.112  0.00  0.00    +0.000 NA
ATOM     18  C   UNL     1     -45.164 -11.605 -29.598  0.00  0.00    +0.000 A 
ATOM     19  N   UNL     1     -45.944 -11.996 -28.583  0.00  0.00    +0.000 N 
ATOM     20  C   UNL     1     -46.871 -11.003 -28.526  0.00  0.00    +0.000 A 
ATOM     21  N   UNL     1     -46.695 -10.029 -29.461  0.00  0.00    +0.000 NA
ATOM     22  C   UNL     1     -45.600 -10.437 -30.115  0.00  0.00    +0.000 A 
ATOM     23  H   UNL     1     -45.866 -12.801 -28.020  0.00  0.00    +0.000 HD
ENDROOT
BRANCH   7  24
ATOM     24  C   UNL     1     -45.595  -4.083 -32.435  0.00  0.00    +0.000 A 
ATOM     25  C   UNL     1     -44.251  -4.136 -32.009  0.00  0.00    +0.000 A 
ATOM     26  F   UNL     1     -43.789  -5.167 -31.260  0.00  0.00    +0.000 F 
ATOM     27  C   UNL     1     -43.365  -3.113 -32.358  0.00  0.00    +0.000 A 
ATOM     28  C   UNL     1     -43.801  -2.035 -33.129  0.00  0.00    +0.000 A 
ATOM     29  C   UNL     1     -45.130  -1.975 -33.553  0.00  0.00    +0.000 A 
ATOM     30  C   UNL     1     -46.024  -2.992 -33.210  0.00  0.00    +0.000 A 
ATOM     31  F   UNL     1     -47.310  -2.910 -33.636  0.00  0.00    +0.000 F 
ENDBRANCH   7  24
TORSDOF 1
ENDMDL
