MODEL 1
REMARK VINA RESULT:      -7.2      0.000      0.000
REMARK  Name = ZINC000031810633
REMARK  1 active torsions:
REMARK  status: ('A' for Active; 'I' for Inactive)
REMARK    1  A    between atoms: C_7  and  C_24
REMARK                            x       y       z     vdW  Elec       q    Type
REMARK                         _______ _______ _______ _____ _____    ______ ____
ROOT
ATOM      1  C   UNL     1     -47.305  -3.938 -33.997  0.00  0.00    +0.000 C 
ATOM      2  C   UNL     1     -46.568  -5.209 -33.763  0.00  0.00    +0.000 A 
ATOM      3  N   UNL     1     -46.695  -6.295 -34.545  0.00  0.00    +0.000 NA
ATOM      4  N   UNL     1     -45.907  -7.238 -34.055  0.00  0.00    +0.000 N 
ATOM      5  C   UNL     1     -45.242  -6.763 -32.977  0.00  0.00    +0.000 A 
ATOM      6  C   UNL     1     -45.660  -5.453 -32.746  0.00  0.00    +0.000 A 
ATOM      7  C   UNL     1     -45.252  -4.445 -31.707  0.00  0.00    +0.000 C 
ATOM      8  S   UNL     1     -44.712  -5.128 -30.110  0.00  0.00    +0.000 S 
ATOM      9  C   UNL     1     -43.164  -5.748 -30.804  0.00  0.00    +0.000 C 
ATOM     10  C   UNL     1     -43.338  -7.155 -31.243  0.00  0.00    +0.000 C 
ATOM     11  O   UNL     1     -42.631  -8.042 -30.700  0.00  0.00    +0.000 OA
ATOM     12  N   UNL     1     -44.250  -7.535 -32.278  0.00  0.00    +0.000 N 
ATOM     13  H   UNL     1     -44.189  -8.477 -32.556  0.00  0.00    +0.000 HD
ATOM     14  C   UNL     1     -45.770  -8.528 -34.669  0.00  0.00    +0.000 A 
ATOM     15  N   UNL     1     -45.788  -8.642 -36.032  0.00  0.00    +0.000 NA
ATOM     16  C   UNL     1     -45.689  -9.862 -36.650  0.00  0.00    +0.000 A 
ATOM     17  N   UNL     1     -45.584 -11.008 -35.911  0.00  0.00    +0.000 NA
ATOM     18  C   UNL     1     -45.581 -10.897 -34.562  0.00  0.00    +0.000 A 
ATOM     19  N   UNL     1     -45.546 -11.902 -33.679  0.00  0.00    +0.000 N 
ATOM     20  C   UNL     1     -45.628 -11.250 -32.487  0.00  0.00    +0.000 A 
ATOM     21  N   UNL     1     -45.719  -9.896 -32.605  0.00  0.00    +0.000 NA
ATOM     22  C   UNL     1     -45.675  -9.707 -33.931  0.00  0.00    +0.000 A 
ATOM     23  H   UNL     1     -45.475 -12.870 -33.848  0.00  0.00    +0.000 HD
ENDROOT
BRANCH   7  24
ATOM     24  C   UNL     1     -44.420  -3.291 -32.203  0.00  0.00    +0.000 A 
ATOM     25  C   UNL     1     -43.533  -3.535 -33.259  0.00  0.00    +0.000 A 
ATOM     26  C   UNL     1     -42.737  -2.507 -33.769  0.00  0.00    +0.000 A 
ATOM     27  C   UNL     1     -42.822  -1.223 -33.226  0.00  0.00    +0.000 A 
ATOM     28  F   UNL     1     -42.049  -0.227 -33.720  0.00  0.00    +0.000 F 
ATOM     29  C   UNL     1     -43.704  -0.967 -32.173  0.00  0.00    +0.000 A 
ATOM     30  C   UNL     1     -44.504  -1.992 -31.659  0.00  0.00    +0.000 A 
ATOM     31  F   UNL     1     -45.350  -1.709 -30.639  0.00  0.00    +0.000 F 
ENDBRANCH   7  24
TORSDOF 1
ENDMDL
MODEL 2
REMARK VINA RESULT:      -6.8      2.541      3.401
REMARK  Name = ZINC000031810633
REMARK  1 active torsions:
REMARK  status: ('A' for Active; 'I' for Inactive)
REMARK    1  A    between atoms: C_7  and  C_24
REMARK                            x       y       z     vdW  Elec       q    Type
REMARK                         _______ _______ _______ _____ _____    ______ ____
ROOT
ATOM      1  C   UNL     1     -45.898  -6.583 -34.836  0.00  0.00    +0.000 C 
ATOM      2  C   UNL     1     -45.759  -7.174 -33.477  0.00  0.00    +0.000 A 
ATOM      3  N   UNL     1     -45.290  -8.413 -33.252  0.00  0.00    +0.000 NA
ATOM      4  N   UNL     1     -45.302  -8.615 -31.944  0.00  0.00    +0.000 N 
ATOM      5  C   UNL     1     -45.745  -7.504 -31.313  0.00  0.00    +0.000 A 
ATOM      6  C   UNL     1     -46.069  -6.552 -32.279  0.00  0.00    +0.000 A 
ATOM      7  C   UNL     1     -46.587  -5.145 -32.158  0.00  0.00    +0.000 C 
ATOM      8  S   UNL     1     -47.616  -4.803 -30.697  0.00  0.00    +0.000 S 
ATOM      9  C   UNL     1     -46.201  -4.887 -29.578  0.00  0.00    +0.000 C 
ATOM     10  C   UNL     1     -46.064  -6.265 -29.044  0.00  0.00    +0.000 C 
ATOM     11  O   UNL     1     -46.160  -6.438 -27.802  0.00  0.00    +0.000 OA
ATOM     12  N   UNL     1     -45.792  -7.394 -29.881  0.00  0.00    +0.000 N 
ATOM     13  H   UNL     1     -45.608  -8.231 -29.396  0.00  0.00    +0.000 HD
ATOM     14  C   UNL     1     -44.831  -9.832 -31.346  0.00  0.00    +0.000 A 
ATOM     15  N   UNL     1     -43.751 -10.482 -31.876  0.00  0.00    +0.000 NA
ATOM     16  C   UNL     1     -43.293 -11.661 -31.346  0.00  0.00    +0.000 A 
ATOM     17  N   UNL     1     -43.921 -12.230 -30.274  0.00  0.00    +0.000 NA
ATOM     18  C   UNL     1     -45.000 -11.595 -29.758  0.00  0.00    +0.000 A 
ATOM     19  N   UNL     1     -45.774 -12.025 -28.753  0.00  0.00    +0.000 N 
ATOM     20  C   UNL     1     -46.731 -11.060 -28.686  0.00  0.00    +0.000 A 
ATOM     21  N   UNL     1     -46.579 -10.067 -29.606  0.00  0.00    +0.000 NA
ATOM     22  C   UNL     1     -45.468 -10.433 -30.260  0.00  0.00    +0.000 A 
ATOM     23  H   UNL     1     -45.674 -12.834 -28.200  0.00  0.00    +0.000 HD
ENDROOT
BRANCH   7  24
ATOM     24  C   UNL     1     -45.607  -4.053 -32.497  0.00  0.00    +0.000 A 
ATOM     25  C   UNL     1     -44.290  -4.196 -32.042  0.00  0.00    +0.000 A 
ATOM     26  C   UNL     1     -43.331  -3.222 -32.326  0.00  0.00    +0.000 A 
ATOM     27  C   UNL     1     -43.681  -2.093 -33.071  0.00  0.00    +0.000 A 
ATOM     28  F   UNL     1     -42.751  -1.148 -33.346  0.00  0.00    +0.000 F 
ATOM     29  C   UNL     1     -44.991  -1.940 -33.532  0.00  0.00    +0.000 A 
ATOM     30  C   UNL     1     -45.955  -2.912 -33.251  0.00  0.00    +0.000 A 
ATOM     31  F   UNL     1     -47.216  -2.733 -33.715  0.00  0.00    +0.000 F 
ENDBRANCH   7  24
TORSDOF 1
ENDMDL
MODEL 3
REMARK VINA RESULT:      -6.7      4.787      7.496
REMARK  Name = ZINC000031810633
REMARK  1 active torsions:
REMARK  status: ('A' for Active; 'I' for Inactive)
REMARK    1  A    between atoms: C_7  and  C_24
REMARK                            x       y       z     vdW  Elec       q    Type
REMARK                         _______ _______ _______ _____ _____    ______ ____
ROOT
ATOM      1  C   UNL     1     -42.673  -6.866 -27.390  0.00  0.00    +0.000 C 
ATOM      2  C   UNL     1     -43.090  -6.189 -28.648  0.00  0.00    +0.000 A 
ATOM      3  N   UNL     1     -42.227  -5.806 -29.605  0.00  0.00    +0.000 NA
ATOM      4  N   UNL     1     -42.928  -5.240 -30.574  0.00  0.00    +0.000 N 
ATOM      5  C   UNL     1     -44.246  -5.281 -30.271  0.00  0.00    +0.000 A 
ATOM      6  C   UNL     1     -44.388  -5.875 -29.017  0.00  0.00    +0.000 A 
ATOM      7  C   UNL     1     -45.608  -6.191 -28.196  0.00  0.00    +0.000 C 
ATOM      8  S   UNL     1     -47.031  -5.083 -28.433  0.00  0.00    +0.000 S 
ATOM      9  C   UNL     1     -47.378  -5.744 -30.078  0.00  0.00    +0.000 C 
ATOM     10  C   UNL     1     -46.687  -4.926 -31.104  0.00  0.00    +0.000 C 
ATOM     11  O   UNL     1     -47.386  -4.333 -31.966  0.00  0.00    +0.000 OA
ATOM     12  N   UNL     1     -45.262  -4.813 -31.173  0.00  0.00    +0.000 N 
ATOM     13  H   UNL     1     -44.924  -4.339 -31.966  0.00  0.00    +0.000 HD
ATOM     14  C   UNL     1     -42.322  -4.743 -31.776  0.00  0.00    +0.000 A 
ATOM     15  N   UNL     1     -41.265  -5.406 -32.336  0.00  0.00    +0.000 NA
ATOM     16  C   UNL     1     -40.645  -4.943 -33.467  0.00  0.00    +0.000 A 
ATOM     17  N   UNL     1     -41.063  -3.785 -34.062  0.00  0.00    +0.000 NA
ATOM     18  C   UNL     1     -42.100  -3.120 -33.501  0.00  0.00    +0.000 A 
ATOM     19  N   UNL     1     -42.608  -1.949 -33.905  0.00  0.00    +0.000 N 
ATOM     20  C   UNL     1     -43.569  -1.708 -32.971  0.00  0.00    +0.000 A 
ATOM     21  N   UNL     1     -43.664  -2.674 -32.017  0.00  0.00    +0.000 NA
ATOM     22  C   UNL     1     -42.728  -3.557 -32.389  0.00  0.00    +0.000 A 
ATOM     23  H   UNL     1     -42.353  -1.400 -34.682  0.00  0.00    +0.000 HD
ENDROOT
BRANCH   7  24
ATOM     24  C   UNL     1     -45.968  -7.651 -28.092  0.00  0.00    +0.000 A 
ATOM     25  C   UNL     1     -45.605  -8.489 -29.153  0.00  0.00    +0.000 A 
ATOM     26  C   UNL     1     -45.905  -9.852 -29.116  0.00  0.00    +0.000 A 
ATOM     27  C   UNL     1     -46.571 -10.390 -28.013  0.00  0.00    +0.000 A 
ATOM     28  F   UNL     1     -46.861 -11.713 -27.977  0.00  0.00    +0.000 F 
ATOM     29  C   UNL     1     -46.936  -9.565 -26.946  0.00  0.00    +0.000 A 
ATOM     30  C   UNL     1     -46.638  -8.200 -26.978  0.00  0.00    +0.000 A 
ATOM     31  F   UNL     1     -47.006  -7.428 -25.926  0.00  0.00    +0.000 F 
ENDBRANCH   7  24
TORSDOF 1
ENDMDL
