MODEL 1
REMARK VINA RESULT:      -6.4      0.000      0.000
REMARK  Name = ZINC000031806781
REMARK  3 active torsions:
REMARK  status: ('A' for Active; 'I' for Inactive)
REMARK    1  A    between atoms: C_1  and  C_28
REMARK    2  A    between atoms: C_24  and  O_31
REMARK    3  A    between atoms: C_27  and  O_32
REMARK                            x       y       z     vdW  Elec       q    Type
REMARK                         _______ _______ _______ _____ _____    ______ ____
ROOT
ATOM      1  C   UNL     1     -45.789  -6.260 -28.416  0.00  0.00    +0.000 C 
ATOM      2  S   UNL     1     -47.221  -5.185 -28.740  0.00  0.00    +0.000 S 
ATOM      3  C   UNL     1     -47.413  -5.796 -30.428  0.00  0.00    +0.000 C 
ATOM      4  C   UNL     1     -46.669  -4.919 -31.363  0.00  0.00    +0.000 C 
ATOM      5  O   UNL     1     -47.312  -4.314 -32.258  0.00  0.00    +0.000 OA
ATOM      6  N   UNL     1     -45.248  -4.757 -31.305  0.00  0.00    +0.000 N 
ATOM      7  C   UNL     1     -44.294  -5.246 -30.346  0.00  0.00    +0.000 A 
ATOM      8  C   UNL     1     -44.519  -5.910 -29.142  0.00  0.00    +0.000 A 
ATOM      9  C   UNL     1     -43.246  -6.217 -28.688  0.00  0.00    +0.000 A 
ATOM     10  C   UNL     1     -42.911  -6.941 -27.431  0.00  0.00    +0.000 C 
ATOM     11  N   UNL     1     -42.321  -5.771 -29.556  0.00  0.00    +0.000 NA
ATOM     12  N   UNL     1     -42.958  -5.169 -30.547  0.00  0.00    +0.000 N 
ATOM     13  H   UNL     1     -44.863  -4.226 -32.039  0.00  0.00    +0.000 HD
ATOM     14  C   UNL     1     -42.273  -4.603 -31.673  0.00  0.00    +0.000 A 
ATOM     15  N   UNL     1     -41.148  -5.205 -32.165  0.00  0.00    +0.000 NA
ATOM     16  C   UNL     1     -40.454  -4.676 -33.221  0.00  0.00    +0.000 A 
ATOM     17  N   UNL     1     -40.864  -3.511 -33.807  0.00  0.00    +0.000 NA
ATOM     18  C   UNL     1     -41.971  -2.906 -33.314  0.00  0.00    +0.000 A 
ATOM     19  N   UNL     1     -42.488  -1.738 -33.715  0.00  0.00    +0.000 N 
ATOM     20  C   UNL     1     -43.532  -1.569 -32.858  0.00  0.00    +0.000 A 
ATOM     21  N   UNL     1     -43.669  -2.576 -31.952  0.00  0.00    +0.000 NA
ATOM     22  C   UNL     1     -42.671  -3.410 -32.276  0.00  0.00    +0.000 A 
ATOM     23  H   UNL     1     -42.188  -1.151 -34.447  0.00  0.00    +0.000 HD
ENDROOT
BRANCH   1  28
ATOM     24  C   UNL     1     -46.167  -9.870 -29.507  0.00  0.00    +0.000 A 
ATOM     25  C   UNL     1     -46.651 -10.485 -28.352  0.00  0.00    +0.000 A 
ATOM     26  C   UNL     1     -46.868  -9.737 -27.194  0.00  0.00    +0.000 A 
ATOM     27  C   UNL     1     -46.607  -8.357 -27.172  0.00  0.00    +0.000 A 
ATOM     28  C   UNL     1     -46.120  -7.729 -28.341  0.00  0.00    +0.000 A 
ATOM     29  C   UNL     1     -45.903  -8.493 -29.493  0.00  0.00    +0.000 A 
BRANCH  24  31
ATOM     30  C   UNL     1     -45.678 -10.078 -31.922  0.00  0.00    +0.000 C 
ATOM     31  O   UNL     1     -45.958 -10.646 -30.650  0.00  0.00    +0.000 OA
ENDBRANCH  24  31
BRANCH  27  32
ATOM     32  O   UNL     1     -46.829  -7.609 -26.010  0.00  0.00    +0.000 OA
ATOM     33  C   UNL     1     -47.507  -8.128 -24.874  0.00  0.00    +0.000 C 
ENDBRANCH  27  32
ENDBRANCH   1  28
TORSDOF 3
ENDMDL
MODEL 2
REMARK VINA RESULT:      -6.0      3.502      7.379
REMARK  Name = ZINC000031806781
REMARK  3 active torsions:
REMARK  status: ('A' for Active; 'I' for Inactive)
REMARK    1  A    between atoms: C_1  and  C_28
REMARK    2  A    between atoms: C_24  and  O_31
REMARK    3  A    between atoms: C_27  and  O_32
REMARK                            x       y       z     vdW  Elec       q    Type
REMARK                         _______ _______ _______ _____ _____    ______ ____
ROOT
ATOM      1  C   UNL     1     -43.999  -6.406 -31.530  0.00  0.00    +0.000 C 
ATOM      2  S   UNL     1     -44.547  -7.224 -33.060  0.00  0.00    +0.000 S 
ATOM      3  C   UNL     1     -46.293  -6.975 -32.676  0.00  0.00    +0.000 C 
ATOM      4  C   UNL     1     -46.821  -8.166 -31.969  0.00  0.00    +0.000 C 
ATOM      5  O   UNL     1     -47.756  -8.815 -32.504  0.00  0.00    +0.000 OA
ATOM      6  N   UNL     1     -46.331  -8.588 -30.692  0.00  0.00    +0.000 N 
ATOM      7  C   UNL     1     -45.229  -8.096 -29.910  0.00  0.00    +0.000 A 
ATOM      8  C   UNL     1     -44.262  -7.152 -30.249  0.00  0.00    +0.000 A 
ATOM      9  C   UNL     1     -43.515  -7.009 -29.091  0.00  0.00    +0.000 A 
ATOM     10  C   UNL     1     -42.347  -6.106 -28.903  0.00  0.00    +0.000 C 
ATOM     11  N   UNL     1     -43.997  -7.809 -28.123  0.00  0.00    +0.000 NA
ATOM     12  N   UNL     1     -45.020  -8.477 -28.629  0.00  0.00    +0.000 N 
ATOM     13  H   UNL     1     -46.828  -9.333 -30.284  0.00  0.00    +0.000 HD
ATOM     14  C   UNL     1     -45.797  -9.402 -27.853  0.00  0.00    +0.000 A 
ATOM     15  N   UNL     1     -46.032  -9.157 -26.528  0.00  0.00    +0.000 NA
ATOM     16  C   UNL     1     -46.745 -10.032 -25.752  0.00  0.00    +0.000 A 
ATOM     17  N   UNL     1     -47.232 -11.194 -26.284  0.00  0.00    +0.000 NA
ATOM     18  C   UNL     1     -46.988 -11.445 -27.593  0.00  0.00    +0.000 A 
ATOM     19  N   UNL     1     -47.331 -12.547 -28.270  0.00  0.00    +0.000 N 
ATOM     20  C   UNL     1     -46.796 -12.314 -29.500  0.00  0.00    +0.000 A 
ATOM     21  N   UNL     1     -46.140 -11.125 -29.599  0.00  0.00    +0.000 NA
ATOM     22  C   UNL     1     -46.291 -10.597 -28.377  0.00  0.00    +0.000 A 
ATOM     23  H   UNL     1     -47.842 -13.329 -27.958  0.00  0.00    +0.000 HD
ENDROOT
BRANCH   1  28
ATOM     24  C   UNL     1     -43.515  -2.706 -32.186  0.00  0.00    +0.000 A 
ATOM     25  C   UNL     1     -44.617  -2.138 -31.543  0.00  0.00    +0.000 A 
ATOM     26  C   UNL     1     -45.538  -2.949 -30.879  0.00  0.00    +0.000 A 
ATOM     27  C   UNL     1     -45.373  -4.344 -30.845  0.00  0.00    +0.000 A 
ATOM     28  C   UNL     1     -44.257  -4.922 -31.491  0.00  0.00    +0.000 A 
ATOM     29  C   UNL     1     -43.343  -4.096 -32.156  0.00  0.00    +0.000 A 
BRANCH  24  31
ATOM     30  C   UNL     1     -42.076  -0.695 -32.243  0.00  0.00    +0.000 C 
ATOM     31  O   UNL     1     -42.611  -1.867 -32.843  0.00  0.00    +0.000 OA
ENDBRANCH  24  31
BRANCH  27  32
ATOM     32  O   UNL     1     -46.298  -5.154 -30.175  0.00  0.00    +0.000 OA
ATOM     33  C   UNL     1     -46.801  -4.847 -28.882  0.00  0.00    +0.000 C 
ENDBRANCH  27  32
ENDBRANCH   1  28
TORSDOF 3
ENDMDL
MODEL 3
REMARK VINA RESULT:      -6.0     10.397     13.295
REMARK  Name = ZINC000031806781
REMARK  3 active torsions:
REMARK  status: ('A' for Active; 'I' for Inactive)
REMARK    1  A    between atoms: C_1  and  C_28
REMARK    2  A    between atoms: C_24  and  O_31
REMARK    3  A    between atoms: C_27  and  O_32
REMARK                            x       y       z     vdW  Elec       q    Type
REMARK                         _______ _______ _______ _____ _____    ______ ____
ROOT
ATOM      1  C   UNL     1     -41.558 -19.233 -26.483  0.00  0.00    +0.000 C 
ATOM      2  S   UNL     1     -42.469 -19.729 -24.988  0.00  0.00    +0.000 S 
ATOM      3  C   UNL     1     -43.982 -20.070 -25.912  0.00  0.00    +0.000 C 
ATOM      4  C   UNL     1     -44.845 -18.865 -25.917  0.00  0.00    +0.000 C 
ATOM      5  O   UNL     1     -45.985 -18.942 -25.392  0.00  0.00    +0.000 OA
ATOM      6  N   UNL     1     -44.445 -17.630 -26.520  0.00  0.00    +0.000 N 
ATOM      7  C   UNL     1     -43.186 -17.242 -27.098  0.00  0.00    +0.000 A 
ATOM      8  C   UNL     1     -41.975 -17.931 -27.112  0.00  0.00    +0.000 A 
ATOM      9  C   UNL     1     -41.144 -17.128 -27.877  0.00  0.00    +0.000 A 
ATOM     10  C   UNL     1     -39.722 -17.405 -28.217  0.00  0.00    +0.000 C 
ATOM     11  N   UNL     1     -41.807 -16.034 -28.295  0.00  0.00    +0.000 NA
ATOM     12  N   UNL     1     -43.034 -16.099 -27.806  0.00  0.00    +0.000 N 
ATOM     13  H   UNL     1     -45.142 -16.937 -26.543  0.00  0.00    +0.000 HD
ATOM     14  C   UNL     1     -44.029 -15.104 -28.086  0.00  0.00    +0.000 A 
ATOM     15  N   UNL     1     -44.066 -14.497 -29.311  0.00  0.00    +0.000 NA
ATOM     16  C   UNL     1     -44.985 -13.523 -29.602  0.00  0.00    +0.000 A 
ATOM     17  N   UNL     1     -45.888 -13.117 -28.659  0.00  0.00    +0.000 NA
ATOM     18  C   UNL     1     -45.844 -13.706 -27.441  0.00  0.00    +0.000 A 
ATOM     19  N   UNL     1     -46.603 -13.404 -26.381  0.00  0.00    +0.000 N 
ATOM     20  C   UNL     1     -46.110 -14.234 -25.421  0.00  0.00    +0.000 A 
ATOM     21  N   UNL     1     -45.085 -15.021 -25.847  0.00  0.00    +0.000 NA
ATOM     22  C   UNL     1     -44.950 -14.669 -27.133  0.00  0.00    +0.000 A 
ATOM     23  H   UNL     1     -47.333 -12.746 -26.313  0.00  0.00    +0.000 HD
ENDROOT
BRANCH   1  28
ATOM     24  C   UNL     1     -41.806 -21.412 -29.574  0.00  0.00    +0.000 A 
ATOM     25  C   UNL     1     -40.830 -22.381 -29.339  0.00  0.00    +0.000 A 
ATOM     26  C   UNL     1     -40.073 -22.348 -28.167  0.00  0.00    +0.000 A 
ATOM     27  C   UNL     1     -40.281 -21.343 -27.207  0.00  0.00    +0.000 A 
ATOM     28  C   UNL     1     -41.271 -20.362 -27.439  0.00  0.00    +0.000 A 
ATOM     29  C   UNL     1     -42.020 -20.406 -28.621  0.00  0.00    +0.000 A 
BRANCH  24  31
ATOM     30  C   UNL     1     -42.520 -22.597 -31.624  0.00  0.00    +0.000 C 
ATOM     31  O   UNL     1     -42.547 -21.471 -30.758  0.00  0.00    +0.000 OA
ENDBRANCH  24  31
BRANCH  27  32
ATOM     32  O   UNL     1     -39.522 -21.315 -26.031  0.00  0.00    +0.000 OA
ATOM     33  C   UNL     1     -38.666 -22.380 -25.637  0.00  0.00    +0.000 C 
ENDBRANCH  27  32
ENDBRANCH   1  28
TORSDOF 3
ENDMDL
