MODEL 1
REMARK VINA RESULT:      -6.4      0.000      0.000
REMARK  Name = ZINC000063474270 CSC027367595 MCULE-3459856010 MolPort-020-069-293
REMARK  4 active torsions:
REMARK  status: ('A' for Active; 'I' for Inactive)
REMARK    1  A    between atoms: C_1  and  C_24
REMARK    2  A    between atoms: C_9  and  C_10
REMARK    3  A    between atoms: C_24  and  S_25
REMARK    4  A    between atoms: S_25  and  C_29
REMARK                            x       y       z     vdW  Elec       q    Type
REMARK                         _______ _______ _______ _____ _____    ______ ____
ROOT
ATOM      1  C   UNL     1     -43.692  -3.837 -31.765  0.00  0.00    +0.000 A 
ATOM      2  C   UNL     1     -43.017  -2.688 -32.110  0.00  0.00    +0.000 A 
ATOM      3  C   UNL     1     -43.940  -1.678 -32.120  0.00  0.00    +0.000 A 
ATOM      4  C   UNL     1     -43.590  -0.364 -32.424  0.00  0.00    +0.000 A 
ATOM      5  C   UNL     1     -42.240  -0.105 -32.727  0.00  0.00    +0.000 A 
ATOM      6  C   UNL     1     -41.287  -1.147 -32.716  0.00  0.00    +0.000 A 
ATOM      7  C   UNL     1     -41.672  -2.464 -32.404  0.00  0.00    +0.000 A 
ATOM      8  O   UNL     1     -45.129  -2.134 -31.811  0.00  0.00    +0.000 OA
ATOM      9  C   UNL     1     -45.023  -3.435 -31.598  0.00  0.00    +0.000 A 
ENDROOT
BRANCH   9  10
ATOM     10  C   UNL     1     -46.177  -4.274 -31.224  0.00  0.00    +0.000 C 
ATOM     11  N   UNL     1     -46.529  -5.451 -31.970  0.00  0.00    +0.000 N 
ATOM     12  C   UNL     1     -46.915  -6.681 -31.314  0.00  0.00    +0.000 A 
ATOM     13  C   UNL     1     -47.029  -7.861 -32.073  0.00  0.00    +0.000 A 
ATOM     14  C   UNL     1     -47.363  -9.069 -31.454  0.00  0.00    +0.000 A 
ATOM     15  C   UNL     1     -47.594  -9.111 -30.077  0.00  0.00    +0.000 A 
ATOM     16  C   UNL     1     -47.484  -7.946 -29.314  0.00  0.00    +0.000 A 
ATOM     17  C   UNL     1     -47.141  -6.738 -29.930  0.00  0.00    +0.000 A 
ATOM     18  N   UNL     1     -46.775  -7.832 -33.476  0.00  0.00    +0.000 N 
ATOM     19  C   UNL     1     -46.538  -6.593 -34.143  0.00  0.00    +0.000 C 
ATOM     20  O   UNL     1     -46.227  -6.587 -35.362  0.00  0.00    +0.000 OA
ATOM     21  C   UNL     1     -46.727  -5.297 -33.416  0.00  0.00    +0.000 C 
ATOM     22  O   UNL     1     -46.886  -3.918 -30.244  0.00  0.00    +0.000 OA
ATOM     23  H   UNL     1     -46.764  -8.673 -33.989  0.00  0.00    +0.000 HD
ENDBRANCH   9  10
BRANCH   1  24
ATOM     24  C   UNL     1     -43.107  -5.202 -31.581  0.00  0.00    +0.000 C 
BRANCH  24  25
ATOM     25  S   UNL     1     -42.827  -6.015 -33.184  0.00  0.00    +0.000 S 
BRANCH  25  29
ATOM     26  C   UNL     1     -44.089 -10.726 -30.416  0.00  0.00    +0.000 C 
ATOM     27  C   UNL     1     -43.838  -9.624 -31.381  0.00  0.00    +0.000 A 
ATOM     28  S   UNL     1     -43.326  -8.078 -30.960  0.00  0.00    +0.000 S 
ATOM     29  C   UNL     1     -43.330  -7.619 -32.580  0.00  0.00    +0.000 A 
ATOM     30  N   UNL     1     -43.709  -8.636 -33.385  0.00  0.00    +0.000 NA
ATOM     31  N   UNL     1     -43.994  -9.752 -32.716  0.00  0.00    +0.000 NA
ENDBRANCH  25  29
ENDBRANCH  24  25
ENDBRANCH   1  24
TORSDOF 4
ENDMDL
MODEL 2
REMARK VINA RESULT:      -6.3      3.110      5.160
REMARK  Name = ZINC000063474270 CSC027367595 MCULE-3459856010 MolPort-020-069-293
REMARK  4 active torsions:
REMARK  status: ('A' for Active; 'I' for Inactive)
REMARK    1  A    between atoms: C_1  and  C_24
REMARK    2  A    between atoms: C_9  and  C_10
REMARK    3  A    between atoms: C_24  and  S_25
REMARK    4  A    between atoms: S_25  and  C_29
REMARK                            x       y       z     vdW  Elec       q    Type
REMARK                         _______ _______ _______ _____ _____    ______ ____
ROOT
ATOM      1  C   UNL     1     -46.702  -5.723 -27.751  0.00  0.00    +0.000 A 
ATOM      2  C   UNL     1     -46.900  -4.927 -26.645  0.00  0.00    +0.000 A 
ATOM      3  C   UNL     1     -47.177  -3.670 -27.111  0.00  0.00    +0.000 A 
ATOM      4  C   UNL     1     -47.439  -2.607 -26.249  0.00  0.00    +0.000 A 
ATOM      5  C   UNL     1     -47.411  -2.869 -24.867  0.00  0.00    +0.000 A 
ATOM      6  C   UNL     1     -47.127  -4.167 -24.386  0.00  0.00    +0.000 A 
ATOM      7  C   UNL     1     -46.866  -5.220 -25.282  0.00  0.00    +0.000 A 
ATOM      8  O   UNL     1     -47.153  -3.645 -28.421  0.00  0.00    +0.000 OA
ATOM      9  C   UNL     1     -46.862  -4.864 -28.845  0.00  0.00    +0.000 A 
ENDROOT
BRANCH   9  10
ATOM     10  C   UNL     1     -46.756  -5.201 -30.277  0.00  0.00    +0.000 C 
ATOM     11  N   UNL     1     -45.537  -5.707 -30.846  0.00  0.00    +0.000 N 
ATOM     12  C   UNL     1     -45.534  -6.801 -31.792  0.00  0.00    +0.000 A 
ATOM     13  C   UNL     1     -44.313  -7.406 -32.144  0.00  0.00    +0.000 A 
ATOM     14  C   UNL     1     -44.291  -8.491 -33.026  0.00  0.00    +0.000 A 
ATOM     15  C   UNL     1     -45.482  -8.976 -33.570  0.00  0.00    +0.000 A 
ATOM     16  C   UNL     1     -46.700  -8.383 -33.228  0.00  0.00    +0.000 A 
ATOM     17  C   UNL     1     -46.725  -7.304 -32.339  0.00  0.00    +0.000 A 
ATOM     18  N   UNL     1     -43.094  -6.930 -31.577  0.00  0.00    +0.000 N 
ATOM     19  C   UNL     1     -43.084  -5.761 -30.760  0.00  0.00    +0.000 C 
ATOM     20  O   UNL     1     -42.019  -5.402 -30.193  0.00  0.00    +0.000 OA
ATOM     21  C   UNL     1     -44.317  -4.919 -30.633  0.00  0.00    +0.000 C 
ATOM     22  O   UNL     1     -47.756  -5.000 -31.018  0.00  0.00    +0.000 OA
ATOM     23  H   UNL     1     -42.253  -7.413 -31.751  0.00  0.00    +0.000 HD
ENDBRANCH   9  10
BRANCH   1  24
ATOM     24  C   UNL     1     -46.412  -7.191 -27.760  0.00  0.00    +0.000 C 
BRANCH  24  25
ATOM     25  S   UNL     1     -44.628  -7.506 -27.607  0.00  0.00    +0.000 S 
BRANCH  25  29
ATOM     26  C   UNL     1     -45.659 -11.786 -31.081  0.00  0.00    +0.000 C 
ATOM     27  C   UNL     1     -45.115 -10.684 -30.247  0.00  0.00    +0.000 A 
ATOM     28  S   UNL     1     -46.040  -9.667 -29.277  0.00  0.00    +0.000 S 
ATOM     29  C   UNL     1     -44.653  -8.845 -28.790  0.00  0.00    +0.000 A 
ATOM     30  N   UNL     1     -43.543  -9.358 -29.363  0.00  0.00    +0.000 NA
ATOM     31  N   UNL     1     -43.801 -10.381 -30.176  0.00  0.00    +0.000 NA
ENDBRANCH  25  29
ENDBRANCH  24  25
ENDBRANCH   1  24
TORSDOF 4
ENDMDL
MODEL 3
REMARK VINA RESULT:      -6.3     10.058     13.550
REMARK  Name = ZINC000063474270 CSC027367595 MCULE-3459856010 MolPort-020-069-293
REMARK  4 active torsions:
REMARK  status: ('A' for Active; 'I' for Inactive)
REMARK    1  A    between atoms: C_1  and  C_24
REMARK    2  A    between atoms: C_9  and  C_10
REMARK    3  A    between atoms: C_24  and  S_25
REMARK    4  A    between atoms: S_25  and  C_29
REMARK                            x       y       z     vdW  Elec       q    Type
REMARK                         _______ _______ _______ _____ _____    ______ ____
ROOT
ATOM      1  C   UNL     1     -44.851 -15.324 -26.494  0.00  0.00    +0.000 A 
ATOM      2  C   UNL     1     -45.194 -14.520 -27.558  0.00  0.00    +0.000 A 
ATOM      3  C   UNL     1     -46.310 -13.823 -27.180  0.00  0.00    +0.000 A 
ATOM      4  C   UNL     1     -46.922 -12.901 -28.027  0.00  0.00    +0.000 A 
ATOM      5  C   UNL     1     -46.353 -12.707 -29.298  0.00  0.00    +0.000 A 
ATOM      6  C   UNL     1     -45.201 -13.426 -29.688  0.00  0.00    +0.000 A 
ATOM      7  C   UNL     1     -44.604 -14.349 -28.810  0.00  0.00    +0.000 A 
ATOM      8  O   UNL     1     -46.672 -14.152 -25.965  0.00  0.00    +0.000 OA
ATOM      9  C   UNL     1     -45.822 -15.062 -25.520  0.00  0.00    +0.000 A 
ENDROOT
BRANCH   9  10
ATOM     10  C   UNL     1     -45.930 -15.657 -24.174  0.00  0.00    +0.000 C 
ATOM     11  N   UNL     1     -45.567 -17.025 -23.922  0.00  0.00    +0.000 N 
ATOM     12  C   UNL     1     -44.811 -17.409 -22.750  0.00  0.00    +0.000 A 
ATOM     13  C   UNL     1     -44.288 -18.713 -22.662  0.00  0.00    +0.000 A 
ATOM     14  C   UNL     1     -43.522 -19.093 -21.556  0.00  0.00    +0.000 A 
ATOM     15  C   UNL     1     -43.277 -18.182 -20.526  0.00  0.00    +0.000 A 
ATOM     16  C   UNL     1     -43.792 -16.886 -20.603  0.00  0.00    +0.000 A 
ATOM     17  C   UNL     1     -44.551 -16.500 -21.712  0.00  0.00    +0.000 A 
ATOM     18  N   UNL     1     -44.517 -19.643 -23.719  0.00  0.00    +0.000 N 
ATOM     19  C   UNL     1     -45.383 -19.310 -24.802  0.00  0.00    +0.000 C 
ATOM     20  O   UNL     1     -45.506 -20.101 -25.772  0.00  0.00    +0.000 OA
ATOM     21  C   UNL     1     -46.199 -18.055 -24.756  0.00  0.00    +0.000 C 
ATOM     22  O   UNL     1     -46.389 -14.949 -23.238  0.00  0.00    +0.000 OA
ATOM     23  H   UNL     1     -44.073 -20.523 -23.700  0.00  0.00    +0.000 HD
ENDBRANCH   9  10
BRANCH   1  24
ATOM     24  C   UNL     1     -43.676 -16.246 -26.407  0.00  0.00    +0.000 C 
BRANCH  24  25
ATOM     25  S   UNL     1     -42.355 -15.527 -25.384  0.00  0.00    +0.000 S 
BRANCH  25  29
ATOM     26  C   UNL     1     -39.938 -20.012 -23.041  0.00  0.00    +0.000 C 
ATOM     27  C   UNL     1     -40.707 -19.016 -23.831  0.00  0.00    +0.000 A 
ATOM     28  S   UNL     1     -40.713 -17.359 -23.540  0.00  0.00    +0.000 S 
ATOM     29  C   UNL     1     -41.768 -17.121 -24.831  0.00  0.00    +0.000 A 
ATOM     30  N   UNL     1     -42.079 -18.285 -25.442  0.00  0.00    +0.000 NA
ATOM     31  N   UNL     1     -41.489 -19.341 -24.883  0.00  0.00    +0.000 NA
ENDBRANCH  25  29
ENDBRANCH  24  25
ENDBRANCH   1  24
TORSDOF 4
ENDMDL
