MODEL 1
REMARK VINA RESULT:      -7.5      0.000      0.000
REMARK  Name = ZINC000013148091 ZINC13148091 PubChem-25726336
REMARK  5 active torsions:
REMARK  status: ('A' for Active; 'I' for Inactive)
REMARK    1  A    between atoms: C_1  and  C_6
REMARK    2  A    between atoms: C_1  and  C_17
REMARK    3  A    between atoms: C_1  and  C_32
REMARK    4  A    between atoms: C_2  and  C_14
REMARK    5  A    between atoms: C_21  and  C_26
REMARK                            x       y       z     vdW  Elec       q    Type
REMARK                         _______ _______ _______ _____ _____    ______ ____
ROOT
ATOM      1  C   UNL     1     -45.243  -5.818 -31.471  0.00  0.00    +0.000 C 
ENDROOT
BRANCH   1   6
ATOM      2  C   UNL     1     -46.114  -8.483 -28.975  0.00  0.00    +0.000 C 
ATOM      3  N   UNL     1     -44.870  -8.104 -28.973  0.00  0.00    +0.000 NA
ATOM      4  C   UNL     1     -44.477  -6.759 -29.264  0.00  0.00    +0.000 C 
ATOM      5  O   UNL     1     -43.306  -6.386 -28.994  0.00  0.00    +0.000 OA
ATOM      6  C   UNL     1     -45.429  -5.803 -29.938  0.00  0.00    +0.000 C 
ATOM      7  C   UNL     1     -46.841  -6.181 -29.578  0.00  0.00    +0.000 C 
ATOM      8  O   UNL     1     -47.756  -5.320 -29.621  0.00  0.00    +0.000 OA
ATOM      9  N   UNL     1     -47.153  -7.525 -29.210  0.00  0.00    +0.000 N 
ATOM     10  H   UNL     1     -48.095  -7.797 -29.116  0.00  0.00    +0.000 HD
BRANCH   2  14
ATOM     11  C   UNL     1     -47.100 -12.555 -28.112  0.00  0.00    +0.000 A 
ATOM     12  C   UNL     1     -46.835 -11.665 -27.068  0.00  0.00    +0.000 A 
ATOM     13  C   UNL     1     -46.517 -10.335 -27.350  0.00  0.00    +0.000 A 
ATOM     14  C   UNL     1     -46.458  -9.884 -28.676  0.00  0.00    +0.000 A 
ATOM     15  C   UNL     1     -46.724 -10.784 -29.716  0.00  0.00    +0.000 A 
ATOM     16  C   UNL     1     -47.046 -12.114 -29.434  0.00  0.00    +0.000 A 
ENDBRANCH   2  14
ENDBRANCH   1   6
BRANCH   1  17
ATOM     17  C   UNL     1     -46.532  -6.175 -32.242  0.00  0.00    +0.000 C 
ATOM     18  C   UNL     1     -46.399  -7.494 -32.943  0.00  0.00    +0.000 C 
ATOM     19  O   UNL     1     -46.279  -8.552 -32.274  0.00  0.00    +0.000 OA
ATOM     20  N   UNL     1     -46.382  -7.551 -34.367  0.00  0.00    +0.000 N 
ATOM     21  C   UNL     1     -46.622  -6.387 -35.166  0.00  0.00    +0.000 C 
ATOM     22  N   UNL     1     -46.921  -5.254 -34.600  0.00  0.00    +0.000 NA
ATOM     23  C   UNL     1     -46.997  -5.090 -33.180  0.00  0.00    +0.000 C 
ATOM     24  O   UNL     1     -47.438  -4.011 -32.708  0.00  0.00    +0.000 OA
ATOM     25  H   UNL     1     -46.203  -8.411 -34.812  0.00  0.00    +0.000 HD
BRANCH  21  26
ATOM     26  C   UNL     1     -46.573  -6.488 -36.637  0.00  0.00    +0.000 A 
ATOM     27  C   UNL     1     -45.488  -7.117 -37.262  0.00  0.00    +0.000 A 
ATOM     28  C   UNL     1     -45.440  -7.224 -38.655  0.00  0.00    +0.000 A 
ATOM     29  C   UNL     1     -46.473  -6.697 -39.433  0.00  0.00    +0.000 A 
ATOM     30  C   UNL     1     -47.557  -6.065 -38.819  0.00  0.00    +0.000 A 
ATOM     31  C   UNL     1     -47.608  -5.960 -37.425  0.00  0.00    +0.000 A 
ENDBRANCH  21  26
ENDBRANCH   1  17
BRANCH   1  32
ATOM     32  C   UNL     1     -44.562  -4.584 -32.012  0.00  0.00    +0.000 A 
ATOM     33  C   UNL     1     -43.790  -4.630 -33.184  0.00  0.00    +0.000 A 
ATOM     34  C   UNL     1     -43.172  -3.475 -33.667  0.00  0.00    +0.000 A 
ATOM     35  C   UNL     1     -43.321  -2.268 -32.979  0.00  0.00    +0.000 A 
ATOM     36  C   UNL     1     -44.092  -2.214 -31.815  0.00  0.00    +0.000 A 
ATOM     37  C   UNL     1     -44.714  -3.370 -31.333  0.00  0.00    +0.000 A 
ATOM     38 CL   UNL     1     -42.536  -0.822 -33.570  0.00  0.00    +0.000 Cl
ENDBRANCH   1  32
TORSDOF 5
ENDMDL
MODEL 2
REMARK VINA RESULT:      -7.5      3.007      6.838
REMARK  Name = ZINC000013148091 ZINC13148091 PubChem-25726336
REMARK  5 active torsions:
REMARK  status: ('A' for Active; 'I' for Inactive)
REMARK    1  A    between atoms: C_1  and  C_6
REMARK    2  A    between atoms: C_1  and  C_17
REMARK    3  A    between atoms: C_1  and  C_32
REMARK    4  A    between atoms: C_2  and  C_14
REMARK    5  A    between atoms: C_21  and  C_26
REMARK                            x       y       z     vdW  Elec       q    Type
REMARK                         _______ _______ _______ _____ _____    ______ ____
ROOT
ATOM      1  C   UNL     1     -44.944  -6.967 -30.399  0.00  0.00    +0.000 C 
ENDROOT
BRANCH   1   6
ATOM      2  C   UNL     1     -46.989  -5.342 -27.703  0.00  0.00    +0.000 C 
ATOM      3  N   UNL     1     -47.300  -5.001 -28.919  0.00  0.00    +0.000 NA
ATOM      4  C   UNL     1     -47.198  -5.910 -30.021  0.00  0.00    +0.000 C 
ATOM      5  O   UNL     1     -47.753  -5.620 -31.112  0.00  0.00    +0.000 OA
ATOM      6  C   UNL     1     -46.392  -7.179 -29.905  0.00  0.00    +0.000 C 
ATOM      7  C   UNL     1     -46.395  -7.633 -28.470  0.00  0.00    +0.000 C 
ATOM      8  O   UNL     1     -46.203  -8.844 -28.191  0.00  0.00    +0.000 OA
ATOM      9  N   UNL     1     -46.590  -6.689 -27.417  0.00  0.00    +0.000 N 
ATOM     10  H   UNL     1     -46.448  -6.966 -26.483  0.00  0.00    +0.000 HD
BRANCH   2  14
ATOM     11  C   UNL     1     -47.314  -2.498 -24.525  0.00  0.00    +0.000 A 
ATOM     12  C   UNL     1     -47.400  -2.073 -25.852  0.00  0.00    +0.000 A 
ATOM     13  C   UNL     1     -47.298  -3.002 -26.890  0.00  0.00    +0.000 A 
ATOM     14  C   UNL     1     -47.106  -4.362 -26.610  0.00  0.00    +0.000 A 
ATOM     15  C   UNL     1     -47.019  -4.779 -25.274  0.00  0.00    +0.000 A 
ATOM     16  C   UNL     1     -47.126  -3.850 -24.236  0.00  0.00    +0.000 A 
ENDBRANCH   2  14
ENDBRANCH   1   6
BRANCH   1  17
ATOM     17  C   UNL     1     -44.321  -8.229 -31.033  0.00  0.00    +0.000 C 
ATOM     18  C   UNL     1     -45.378  -9.205 -31.454  0.00  0.00    +0.000 C 
ATOM     19  O   UNL     1     -46.179  -8.906 -32.376  0.00  0.00    +0.000 OA
ATOM     20  N   UNL     1     -45.497 -10.463 -30.795  0.00  0.00    +0.000 N 
ATOM     21  C   UNL     1     -44.543 -10.888 -29.814  0.00  0.00    +0.000 C 
ATOM     22  N   UNL     1     -43.506 -10.149 -29.547  0.00  0.00    +0.000 NA
ATOM     23  C   UNL     1     -43.270  -8.883 -30.171  0.00  0.00    +0.000 C 
ATOM     24  O   UNL     1     -42.174  -8.296 -29.979  0.00  0.00    +0.000 OA
ATOM     25  H   UNL     1     -46.252 -11.055 -31.019  0.00  0.00    +0.000 HD
BRANCH  21  26
ATOM     26  C   UNL     1     -44.717 -12.189 -29.141  0.00  0.00    +0.000 A 
ATOM     27  C   UNL     1     -45.778 -12.380 -28.244  0.00  0.00    +0.000 A 
ATOM     28  C   UNL     1     -45.954 -13.612 -27.610  0.00  0.00    +0.000 A 
ATOM     29  C   UNL     1     -45.067 -14.662 -27.863  0.00  0.00    +0.000 A 
ATOM     30  C   UNL     1     -44.005 -14.480 -28.753  0.00  0.00    +0.000 A 
ATOM     31  C   UNL     1     -43.830 -13.248 -29.390  0.00  0.00    +0.000 A 
ENDBRANCH  21  26
ENDBRANCH   1  17
BRANCH   1  32
ATOM     32  C   UNL     1     -44.771  -5.737 -31.257  0.00  0.00    +0.000 A 
ATOM     33  C   UNL     1     -44.883  -5.800 -32.656  0.00  0.00    +0.000 A 
ATOM     34  C   UNL     1     -44.721  -4.648 -33.429  0.00  0.00    +0.000 A 
ATOM     35  C   UNL     1     -44.444  -3.428 -32.808  0.00  0.00    +0.000 A 
ATOM     36  C   UNL     1     -44.337  -3.357 -31.416  0.00  0.00    +0.000 A 
ATOM     37  C   UNL     1     -44.503  -4.509 -30.641  0.00  0.00    +0.000 A 
ATOM     38 CL   UNL     1     -44.224  -1.986 -33.771  0.00  0.00    +0.000 Cl
ENDBRANCH   1  32
TORSDOF 5
ENDMDL
MODEL 3
REMARK VINA RESULT:      -7.5      4.173      7.996
REMARK  Name = ZINC000013148091 ZINC13148091 PubChem-25726336
REMARK  5 active torsions:
REMARK  status: ('A' for Active; 'I' for Inactive)
REMARK    1  A    between atoms: C_1  and  C_6
REMARK    2  A    between atoms: C_1  and  C_17
REMARK    3  A    between atoms: C_1  and  C_32
REMARK    4  A    between atoms: C_2  and  C_14
REMARK    5  A    between atoms: C_21  and  C_26
REMARK                            x       y       z     vdW  Elec       q    Type
REMARK                         _______ _______ _______ _____ _____    ______ ____
ROOT
ATOM      1  C   UNL     1     -44.893  -8.537 -28.552  0.00  0.00    +0.000 C 
ENDROOT
BRANCH   1   6
ATOM      2  C   UNL     1     -45.449 -10.442 -31.738  0.00  0.00    +0.000 C 
ATOM      3  N   UNL     1     -44.204 -10.259 -31.409  0.00  0.00    +0.000 NA
ATOM      4  C   UNL     1     -43.767 -10.223 -30.046  0.00  0.00    +0.000 C 
ATOM      5  O   UNL     1     -42.539 -10.308 -29.789  0.00  0.00    +0.000 OA
ATOM      6  C   UNL     1     -44.755 -10.029 -28.922  0.00  0.00    +0.000 C 
ATOM      7  C   UNL     1     -46.088 -10.592 -29.338  0.00  0.00    +0.000 C 
ATOM      8  O   UNL     1     -46.916 -10.963 -28.467  0.00  0.00    +0.000 OA
ATOM      9  N   UNL     1     -46.429 -10.683 -30.721  0.00  0.00    +0.000 N 
ATOM     10  H   UNL     1     -47.351 -10.915 -30.979  0.00  0.00    +0.000 HD
BRANCH   2  14
ATOM     11  C   UNL     1     -46.601 -10.508 -35.856  0.00  0.00    +0.000 A 
ATOM     12  C   UNL     1     -46.637  -9.309 -35.142  0.00  0.00    +0.000 A 
ATOM     13  C   UNL     1     -46.257  -9.286 -33.798  0.00  0.00    +0.000 A 
ATOM     14  C   UNL     1     -45.841 -10.462 -33.157  0.00  0.00    +0.000 A 
ATOM     15  C   UNL     1     -45.810 -11.661 -33.883  0.00  0.00    +0.000 A 
ATOM     16  C   UNL     1     -46.186 -11.682 -35.228  0.00  0.00    +0.000 A 
ENDBRANCH   2  14
ENDBRANCH   1   6
BRANCH   1  17
ATOM     17  C   UNL     1     -46.312  -8.150 -28.083  0.00  0.00    +0.000 C 
ATOM     18  C   UNL     1     -46.794  -6.910 -28.774  0.00  0.00    +0.000 C 
ATOM     19  O   UNL     1     -47.001  -6.920 -30.014  0.00  0.00    +0.000 OA
ATOM     20  N   UNL     1     -46.995  -5.708 -28.033  0.00  0.00    +0.000 N 
ATOM     21  C   UNL     1     -46.874  -5.678 -26.607  0.00  0.00    +0.000 C 
ATOM     22  N   UNL     1     -46.634  -6.774 -25.947  0.00  0.00    +0.000 NA
ATOM     23  C   UNL     1     -46.446  -8.042 -26.585  0.00  0.00    +0.000 C 
ATOM     24  O   UNL     1     -46.370  -9.080 -25.880  0.00  0.00    +0.000 OA
ATOM     25  H   UNL     1     -47.222  -4.879 -28.514  0.00  0.00    +0.000 HD
BRANCH  21  26
ATOM     26  C   UNL     1     -47.069  -4.408 -25.883  0.00  0.00    +0.000 A 
ATOM     27  C   UNL     1     -47.080  -4.392 -24.481  0.00  0.00    +0.000 A 
ATOM     28  C   UNL     1     -47.255  -3.190 -23.790  0.00  0.00    +0.000 A 
ATOM     29  C   UNL     1     -47.426  -1.997 -24.494  0.00  0.00    +0.000 A 
ATOM     30  C   UNL     1     -47.420  -2.003 -25.891  0.00  0.00    +0.000 A 
ATOM     31  C   UNL     1     -47.242  -3.204 -26.584  0.00  0.00    +0.000 A 
ENDBRANCH  21  26
ENDBRANCH   1  17
BRANCH   1  32
ATOM     32  C   UNL     1     -43.815  -8.041 -27.618  0.00  0.00    +0.000 A 
ATOM     33  C   UNL     1     -43.281  -8.866 -26.614  0.00  0.00    +0.000 A 
ATOM     34  C   UNL     1     -42.282  -8.387 -25.765  0.00  0.00    +0.000 A 
ATOM     35  C   UNL     1     -41.813  -7.079 -25.913  0.00  0.00    +0.000 A 
ATOM     36  C   UNL     1     -42.336  -6.255 -26.913  0.00  0.00    +0.000 A 
ATOM     37  C   UNL     1     -43.333  -6.735 -27.766  0.00  0.00    +0.000 A 
ATOM     38 CL   UNL     1     -40.574  -6.468 -24.841  0.00  0.00    +0.000 Cl
ENDBRANCH   1  32
TORSDOF 5
ENDMDL
