MODEL 1
REMARK VINA RESULT:      -6.9      0.000      0.000
REMARK  Name = ZINC000031808022
REMARK  1 active torsions:
REMARK  status: ('A' for Active; 'I' for Inactive)
REMARK    1  A    between atoms: C_7  and  C_24
REMARK                            x       y       z     vdW  Elec       q    Type
REMARK                         _______ _______ _______ _____ _____    ______ ____
ROOT
ATOM      1  C   UNL     1     -47.405  -4.475 -26.208  0.00  0.00    +0.000 C 
ATOM      2  C   UNL     1     -46.940  -4.722 -27.601  0.00  0.00    +0.000 A 
ATOM      3  N   UNL     1     -46.788  -3.748 -28.515  0.00  0.00    +0.000 NA
ATOM      4  N   UNL     1     -46.363  -4.311 -29.634  0.00  0.00    +0.000 N 
ATOM      5  C   UNL     1     -46.205  -5.642 -29.446  0.00  0.00    +0.000 A 
ATOM      6  C   UNL     1     -46.590  -5.948 -28.142  0.00  0.00    +0.000 A 
ATOM      7  C   UNL     1     -46.595  -7.243 -27.377  0.00  0.00    +0.000 C 
ATOM      8  S   UNL     1     -46.877  -8.738 -28.378  0.00  0.00    +0.000 S 
ATOM      9  C   UNL     1     -45.242  -8.653 -29.144  0.00  0.00    +0.000 C 
ATOM     10  C   UNL     1     -45.319  -7.892 -30.415  0.00  0.00    +0.000 C 
ATOM     11  O   UNL     1     -45.011  -8.479 -31.483  0.00  0.00    +0.000 OA
ATOM     12  N   UNL     1     -45.690  -6.511 -30.467  0.00  0.00    +0.000 N 
ATOM     13  H   UNL     1     -45.572  -6.087 -31.349  0.00  0.00    +0.000 HD
ATOM     14  C   UNL     1     -46.065  -3.553 -30.815  0.00  0.00    +0.000 A 
ATOM     15  N   UNL     1     -45.494  -2.316 -30.710  0.00  0.00    +0.000 NA
ATOM     16  C   UNL     1     -45.222  -1.554 -31.817  0.00  0.00    +0.000 A 
ATOM     17  N   UNL     1     -45.537  -2.010 -33.066  0.00  0.00    +0.000 NA
ATOM     18  C   UNL     1     -46.116  -3.229 -33.173  0.00  0.00    +0.000 A 
ATOM     19  N   UNL     1     -46.544  -3.814 -34.298  0.00  0.00    +0.000 N 
ATOM     20  C   UNL     1     -47.093  -4.971 -33.836  0.00  0.00    +0.000 A 
ATOM     21  N   UNL     1     -47.024  -5.113 -32.485  0.00  0.00    +0.000 NA
ATOM     22  C   UNL     1     -46.390  -3.998 -32.098  0.00  0.00    +0.000 A 
ATOM     23  H   UNL     1     -46.479  -3.490 -35.225  0.00  0.00    +0.000 HD
ENDROOT
BRANCH   7  24
ATOM     24  C   UNL     1     -45.485  -7.375 -26.367  0.00  0.00    +0.000 A 
ATOM     25  C   UNL     1     -44.173  -7.002 -26.700  0.00  0.00    +0.000 A 
ATOM     26  C   UNL     1     -43.142  -7.119 -25.765  0.00  0.00    +0.000 A 
ATOM     27  C   UNL     1     -43.414  -7.609 -24.487  0.00  0.00    +0.000 A 
ATOM     28  C   UNL     1     -44.715  -7.981 -24.143  0.00  0.00    +0.000 A 
ATOM     29  C   UNL     1     -45.752  -7.866 -25.075  0.00  0.00    +0.000 A 
ATOM     30 CL   UNL     1     -47.373  -8.339 -24.588  0.00  0.00    +0.000 Cl
ENDBRANCH   7  24
TORSDOF 1
ENDMDL
MODEL 2
REMARK VINA RESULT:      -6.5      2.917      3.997
REMARK  Name = ZINC000031808022
REMARK  1 active torsions:
REMARK  status: ('A' for Active; 'I' for Inactive)
REMARK    1  A    between atoms: C_7  and  C_24
REMARK                            x       y       z     vdW  Elec       q    Type
REMARK                         _______ _______ _______ _____ _____    ______ ____
ROOT
ATOM      1  C   UNL     1     -42.628  -6.757 -27.464  0.00  0.00    +0.000 C 
ATOM      2  C   UNL     1     -43.093  -6.097 -28.715  0.00  0.00    +0.000 A 
ATOM      3  N   UNL     1     -42.267  -5.736 -29.713  0.00  0.00    +0.000 NA
ATOM      4  N   UNL     1     -43.003  -5.185 -30.663  0.00  0.00    +0.000 N 
ATOM      5  C   UNL     1     -44.308  -5.214 -30.306  0.00  0.00    +0.000 A 
ATOM      6  C   UNL     1     -44.402  -5.782 -29.037  0.00  0.00    +0.000 A 
ATOM      7  C   UNL     1     -45.587  -6.096 -28.165  0.00  0.00    +0.000 C 
ATOM      8  S   UNL     1     -47.008  -4.973 -28.350  0.00  0.00    +0.000 S 
ATOM      9  C   UNL     1     -47.439  -5.628 -29.979  0.00  0.00    +0.000 C 
ATOM     10  C   UNL     1     -46.778  -4.826 -31.037  0.00  0.00    +0.000 C 
ATOM     11  O   UNL     1     -47.501  -4.222 -31.869  0.00  0.00    +0.000 OA
ATOM     12  N   UNL     1     -45.356  -4.745 -31.170  0.00  0.00    +0.000 N 
ATOM     13  H   UNL     1     -45.045  -4.294 -31.989  0.00  0.00    +0.000 HD
ATOM     14  C   UNL     1     -42.444  -4.710 -31.896  0.00  0.00    +0.000 A 
ATOM     15  N   UNL     1     -41.413  -5.387 -32.486  0.00  0.00    +0.000 NA
ATOM     16  C   UNL     1     -40.837  -4.944 -33.649  0.00  0.00    +0.000 A 
ATOM     17  N   UNL     1     -41.272  -3.794 -34.244  0.00  0.00    +0.000 NA
ATOM     18  C   UNL     1     -42.284  -3.115 -33.655  0.00  0.00    +0.000 A 
ATOM     19  N   UNL     1     -42.803  -1.948 -34.056  0.00  0.00    +0.000 N 
ATOM     20  C   UNL     1     -43.724  -1.688 -33.088  0.00  0.00    +0.000 A 
ATOM     21  N   UNL     1     -43.785  -2.638 -32.116  0.00  0.00    +0.000 NA
ATOM     22  C   UNL     1     -42.868  -3.532 -32.512  0.00  0.00    +0.000 A 
ATOM     23  H   UNL     1     -42.575  -1.412 -34.851  0.00  0.00    +0.000 HD
ENDROOT
BRANCH   7  24
ATOM     24  C   UNL     1     -45.954  -7.556 -28.113  0.00  0.00    +0.000 A 
ATOM     25  C   UNL     1     -45.793  -8.370 -29.246  0.00  0.00    +0.000 A 
ATOM     26  C   UNL     1     -46.129  -9.725 -29.200  0.00  0.00    +0.000 A 
ATOM     27  C   UNL     1     -46.628 -10.279 -28.020  0.00  0.00    +0.000 A 
ATOM     28  C   UNL     1     -46.790  -9.480 -26.887  0.00  0.00    +0.000 A 
ATOM     29  C   UNL     1     -46.455  -8.122 -26.926  0.00  0.00    +0.000 A 
ATOM     30 CL   UNL     1     -46.670  -7.163 -25.469  0.00  0.00    +0.000 Cl
ENDBRANCH   7  24
TORSDOF 1
ENDMDL
MODEL 3
REMARK VINA RESULT:      -6.2     14.121     17.461
REMARK  Name = ZINC000031808022
REMARK  1 active torsions:
REMARK  status: ('A' for Active; 'I' for Inactive)
REMARK    1  A    between atoms: C_7  and  C_24
REMARK                            x       y       z     vdW  Elec       q    Type
REMARK                         _______ _______ _______ _____ _____    ______ ____
ROOT
ATOM      1  C   UNL     1     -42.534 -14.711 -20.076  0.00  0.00    +0.000 C 
ATOM      2  C   UNL     1     -42.610 -16.038 -19.406  0.00  0.00    +0.000 A 
ATOM      3  N   UNL     1     -41.715 -16.461 -18.496  0.00  0.00    +0.000 NA
ATOM      4  N   UNL     1     -42.081 -17.670 -18.107  0.00  0.00    +0.000 N 
ATOM      5  C   UNL     1     -43.227 -18.026 -18.732  0.00  0.00    +0.000 A 
ATOM      6  C   UNL     1     -43.590 -16.998 -19.600  0.00  0.00    +0.000 A 
ATOM      7  C   UNL     1     -44.773 -16.828 -20.513  0.00  0.00    +0.000 C 
ATOM      8  S   UNL     1     -45.447 -18.369 -21.207  0.00  0.00    +0.000 S 
ATOM      9  C   UNL     1     -46.149 -18.891 -19.625  0.00  0.00    +0.000 C 
ATOM     10  C   UNL     1     -45.178 -19.744 -18.899  0.00  0.00    +0.000 C 
ATOM     11  O   UNL     1     -45.506 -20.928 -18.630  0.00  0.00    +0.000 OA
ATOM     12  N   UNL     1     -43.904 -19.264 -18.459  0.00  0.00    +0.000 N 
ATOM     13  H   UNL     1     -43.411 -19.883 -17.873  0.00  0.00    +0.000 HD
ATOM     14  C   UNL     1     -41.361 -18.412 -17.111  0.00  0.00    +0.000 A 
ATOM     15  N   UNL     1     -40.804 -17.764 -16.044  0.00  0.00    +0.000 NA
ATOM     16  C   UNL     1     -40.086 -18.438 -15.091  0.00  0.00    +0.000 A 
ATOM     17  N   UNL     1     -39.892 -19.787 -15.193  0.00  0.00    +0.000 NA
ATOM     18  C   UNL     1     -40.431 -20.429 -16.257  0.00  0.00    +0.000 A 
ATOM     19  N   UNL     1     -40.301 -21.727 -16.555  0.00  0.00    +0.000 N 
ATOM     20  C   UNL     1     -40.970 -21.825 -17.737  0.00  0.00    +0.000 A 
ATOM     21  N   UNL     1     -41.494 -20.647 -18.172  0.00  0.00    +0.000 NA
ATOM     22  C   UNL     1     -41.144 -19.787 -17.206  0.00  0.00    +0.000 A 
ATOM     23  H   UNL     1     -39.839 -22.434 -16.048  0.00  0.00    +0.000 HD
ENDROOT
BRANCH   7  24
ATOM     24  C   UNL     1     -45.817 -15.866 -20.008  0.00  0.00    +0.000 A 
ATOM     25  C   UNL     1     -46.226 -15.901 -18.665  0.00  0.00    +0.000 A 
ATOM     26  C   UNL     1     -47.192 -15.009 -18.194  0.00  0.00    +0.000 A 
ATOM     27  C   UNL     1     -47.756 -14.072 -19.060  0.00  0.00    +0.000 A 
ATOM     28  C   UNL     1     -47.355 -14.026 -20.397  0.00  0.00    +0.000 A 
ATOM     29  C   UNL     1     -46.389 -14.917 -20.876  0.00  0.00    +0.000 A 
ATOM     30 CL   UNL     1     -45.914 -14.810 -22.565  0.00  0.00    +0.000 Cl
ENDBRANCH   7  24
TORSDOF 1
ENDMDL
