MODEL 1
REMARK VINA RESULT:      -7.7      0.000      0.000
REMARK  Name = ZINC000008996339
REMARK  4 active torsions:
REMARK  status: ('A' for Active; 'I' for Inactive)
REMARK    1  A    between atoms: C_4  and  O_5
REMARK    2  A    between atoms: C_6  and  C_22
REMARK    3  A    between atoms: C_7  and  C_9
REMARK    4  A    between atoms: C_22  and  C_24
REMARK                            x       y       z     vdW  Elec       q    Type
REMARK                         _______ _______ _______ _____ _____    ______ ____
ROOT
ATOM      1  N   UNL     1     -45.482 -14.804 -25.666  0.00  0.00    +0.000 N 
ATOM      2  C   UNL     1     -44.758 -15.542 -26.637  0.00  0.00    +0.000 C 
ATOM      3  O   UNL     1     -44.221 -15.044 -27.661  0.00  0.00    +0.000 OA
ATOM      4  C   UNL     1     -44.747 -16.936 -26.279  0.00  0.00    +0.000 C 
ATOM      5  C   UNL     1     -45.431 -17.095 -25.145  0.00  0.00    +0.000 C 
ATOM      6  C   UNL     1     -45.935 -15.752 -24.644  0.00  0.00    +0.000 C 
ATOM      7  C   UNL     1     -45.628  -9.870 -25.231  0.00  0.00    +0.000 C 
ATOM      8  C   UNL     1     -45.916 -11.290 -25.563  0.00  0.00    +0.000 A 
ATOM      9  C   UNL     1     -45.143 -12.372 -25.190  0.00  0.00    +0.000 A 
ATOM     10  C   UNL     1     -45.853 -13.420 -25.751  0.00  0.00    +0.000 A 
ATOM     11  N   UNL     1     -46.949 -12.979 -26.397  0.00  0.00    +0.000 NA
ATOM     12  O   UNL     1     -46.952 -11.688 -26.262  0.00  0.00    +0.000 OA
ENDROOT
BRANCH   6  13
ATOM     13  C   UNL     1     -45.342 -15.405 -23.306  0.00  0.00    +0.000 A 
ATOM     14  C   UNL     1     -46.197 -15.088 -22.244  0.00  0.00    +0.000 A 
ATOM     15  C   UNL     1     -45.671 -14.751 -20.994  0.00  0.00    +0.000 A 
ATOM     16  C   UNL     1     -44.287 -14.727 -20.802  0.00  0.00    +0.000 A 
ATOM     17  C   UNL     1     -43.729 -14.371 -19.471  0.00  0.00    +0.000 C 
ATOM     18  C   UNL     1     -43.428 -15.035 -21.860  0.00  0.00    +0.000 A 
ATOM     19  C   UNL     1     -43.953 -15.371 -23.110  0.00  0.00    +0.000 A 
ENDBRANCH   6  13
BRANCH   4  20
ATOM     20  O   UNL     1     -44.142 -17.949 -27.013  0.00  0.00    +0.000 OA
ATOM     21  H   UNL     1     -43.331 -18.318 -26.723  0.00  0.00    +0.000 HD
ENDBRANCH   4  20
BRANCH   5  22
ATOM     22  C   UNL     1     -45.661 -18.396 -24.475  0.00  0.00    +0.000 C 
ATOM     23  O   UNL     1     -46.293 -19.305 -25.078  0.00  0.00    +0.000 OA
BRANCH  22  24
ATOM     24  C   UNL     1     -45.163 -18.659 -23.114  0.00  0.00    +0.000 A 
ATOM     25  C   UNL     1     -43.877 -19.118 -22.816  0.00  0.00    +0.000 A 
ATOM     26  C   UNL     1     -43.896 -19.206 -21.440  0.00  0.00    +0.000 A 
ATOM     27  C   UNL     1     -42.897 -19.604 -20.555  0.00  0.00    +0.000 A 
ATOM     28  C   UNL     1     -43.204 -19.595 -19.182  0.00  0.00    +0.000 A 
ATOM     29  C   UNL     1     -44.482 -19.195 -18.735  0.00  0.00    +0.000 A 
ATOM     30  C   UNL     1     -45.470 -18.800 -19.654  0.00  0.00    +0.000 A 
ATOM     31  C   UNL     1     -45.134 -18.821 -21.006  0.00  0.00    +0.000 A 
ATOM     32  O   UNL     1     -45.887 -18.496 -22.021  0.00  0.00    +0.000 OA
ENDBRANCH  22  24
ENDBRANCH   5  22
TORSDOF 4
ENDMDL
MODEL 2
REMARK VINA RESULT:      -7.1      7.685     13.716
REMARK  Name = ZINC000008996339
REMARK  4 active torsions:
REMARK  status: ('A' for Active; 'I' for Inactive)
REMARK    1  A    between atoms: C_4  and  O_5
REMARK    2  A    between atoms: C_6  and  C_22
REMARK    3  A    between atoms: C_7  and  C_9
REMARK    4  A    between atoms: C_22  and  C_24
REMARK                            x       y       z     vdW  Elec       q    Type
REMARK                         _______ _______ _______ _____ _____    ______ ____
ROOT
ATOM      1  N   UNL     1     -46.446  -6.449 -26.459  0.00  0.00    +0.000 N 
ATOM      2  C   UNL     1     -46.850  -5.103 -26.268  0.00  0.00    +0.000 C 
ATOM      3  O   UNL     1     -47.041  -4.565 -25.146  0.00  0.00    +0.000 OA
ATOM      4  C   UNL     1     -47.023  -4.462 -27.545  0.00  0.00    +0.000 C 
ATOM      5  C   UNL     1     -46.753  -5.343 -28.509  0.00  0.00    +0.000 C 
ATOM      6  C   UNL     1     -46.338  -6.673 -27.903  0.00  0.00    +0.000 C 
ATOM      7  C   UNL     1     -44.747  -9.530 -22.970  0.00  0.00    +0.000 C 
ATOM      8  C   UNL     1     -45.597  -8.786 -23.935  0.00  0.00    +0.000 A 
ATOM      9  C   UNL     1     -45.156  -7.793 -24.789  0.00  0.00    +0.000 A 
ATOM     10  C   UNL     1     -46.330  -7.456 -25.442  0.00  0.00    +0.000 A 
ATOM     11  N   UNL     1     -47.365  -8.195 -25.002  0.00  0.00    +0.000 NA
ATOM     12  O   UNL     1     -46.883  -8.985 -24.091  0.00  0.00    +0.000 OA
ENDROOT
BRANCH   6  13
ATOM     13  C   UNL     1     -44.926  -7.033 -28.276  0.00  0.00    +0.000 A 
ATOM     14  C   UNL     1     -44.666  -8.294 -28.822  0.00  0.00    +0.000 A 
ATOM     15  C   UNL     1     -43.361  -8.656 -29.166  0.00  0.00    +0.000 A 
ATOM     16  C   UNL     1     -42.310  -7.759 -28.961  0.00  0.00    +0.000 A 
ATOM     17  C   UNL     1     -40.922  -8.145 -29.329  0.00  0.00    +0.000 C 
ATOM     18  C   UNL     1     -42.562  -6.500 -28.409  0.00  0.00    +0.000 A 
ATOM     19  C   UNL     1     -43.866  -6.138 -28.064  0.00  0.00    +0.000 A 
ENDBRANCH   6  13
BRANCH   4  20
ATOM     20  O   UNL     1     -47.429  -3.147 -27.735  0.00  0.00    +0.000 OA
ATOM     21  H   UNL     1     -48.071  -2.944 -28.386  0.00  0.00    +0.000 HD
ENDBRANCH   4  20
BRANCH   5  22
ATOM     22  C   UNL     1     -46.845  -5.059 -29.960  0.00  0.00    +0.000 C 
ATOM     23  O   UNL     1     -47.686  -5.677 -30.665  0.00  0.00    +0.000 OA
BRANCH  22  24
ATOM     24  C   UNL     1     -45.973  -4.061 -30.605  0.00  0.00    +0.000 A 
ATOM     25  C   UNL     1     -44.787  -4.364 -31.280  0.00  0.00    +0.000 A 
ATOM     26  C   UNL     1     -44.347  -3.125 -31.694  0.00  0.00    +0.000 A 
ATOM     27  C   UNL     1     -43.213  -2.775 -32.423  0.00  0.00    +0.000 A 
ATOM     28  C   UNL     1     -43.016  -1.412 -32.706  0.00  0.00    +0.000 A 
ATOM     29  C   UNL     1     -43.944  -0.445 -32.260  0.00  0.00    +0.000 A 
ATOM     30  C   UNL     1     -45.080  -0.830 -31.526  0.00  0.00    +0.000 A 
ATOM     31  C   UNL     1     -45.245  -2.188 -31.263  0.00  0.00    +0.000 A 
ATOM     32  O   UNL     1     -46.216  -2.763 -30.607  0.00  0.00    +0.000 OA
ENDBRANCH  22  24
ENDBRANCH   5  22
TORSDOF 4
ENDMDL
MODEL 3
REMARK VINA RESULT:      -7.1      3.627      7.039
REMARK  Name = ZINC000008996339
REMARK  4 active torsions:
REMARK  status: ('A' for Active; 'I' for Inactive)
REMARK    1  A    between atoms: C_4  and  O_5
REMARK    2  A    between atoms: C_6  and  C_22
REMARK    3  A    between atoms: C_7  and  C_9
REMARK    4  A    between atoms: C_22  and  C_24
REMARK                            x       y       z     vdW  Elec       q    Type
REMARK                         _______ _______ _______ _____ _____    ______ ____
ROOT
ATOM      1  N   UNL     1     -42.917 -19.805 -21.813  0.00  0.00    +0.000 N 
ATOM      2  C   UNL     1     -42.463 -19.435 -20.520  0.00  0.00    +0.000 C 
ATOM      3  O   UNL     1     -41.291 -19.611 -20.095  0.00  0.00    +0.000 OA
ATOM      4  C   UNL     1     -43.546 -18.850 -19.775  0.00  0.00    +0.000 C 
ATOM      5  C   UNL     1     -44.641 -18.846 -20.536  0.00  0.00    +0.000 C 
ATOM      6  C   UNL     1     -44.330 -19.429 -21.904  0.00  0.00    +0.000 C 
ATOM      7  C   UNL     1     -40.085 -21.176 -25.640  0.00  0.00    +0.000 C 
ATOM      8  C   UNL     1     -40.961 -21.154 -24.440  0.00  0.00    +0.000 A 
ATOM      9  C   UNL     1     -41.447 -20.016 -23.825  0.00  0.00    +0.000 A 
ATOM     10  C   UNL     1     -42.184 -20.561 -22.788  0.00  0.00    +0.000 A 
ATOM     11  N   UNL     1     -42.130 -21.906 -22.802  0.00  0.00    +0.000 NA
ATOM     12  O   UNL     1     -41.381 -22.227 -23.814  0.00  0.00    +0.000 OA
ENDROOT
BRANCH   6  13
ATOM     13  C   UNL     1     -44.534 -18.413 -22.995  0.00  0.00    +0.000 A 
ATOM     14  C   UNL     1     -45.457 -18.681 -24.012  0.00  0.00    +0.000 A 
ATOM     15  C   UNL     1     -45.657 -17.759 -25.042  0.00  0.00    +0.000 A 
ATOM     16  C   UNL     1     -44.930 -16.566 -25.063  0.00  0.00    +0.000 A 
ATOM     17  C   UNL     1     -45.143 -15.585 -26.159  0.00  0.00    +0.000 C 
ATOM     18  C   UNL     1     -44.000 -16.296 -24.055  0.00  0.00    +0.000 A 
ATOM     19  C   UNL     1     -43.799 -17.217 -23.025  0.00  0.00    +0.000 A 
ENDBRANCH   6  13
BRANCH   4  20
ATOM     20  O   UNL     1     -43.463 -18.388 -18.466  0.00  0.00    +0.000 OA
ATOM     21  H   UNL     1     -42.670 -17.995 -18.158  0.00  0.00    +0.000 HD
ENDBRANCH   4  20
BRANCH   5  22
ATOM     22  C   UNL     1     -45.966 -18.343 -20.104  0.00  0.00    +0.000 C 
ATOM     23  O   UNL     1     -46.906 -19.158 -19.898  0.00  0.00    +0.000 OA
BRANCH  22  24
ATOM     24  C   UNL     1     -46.215 -16.905 -19.903  0.00  0.00    +0.000 A 
ATOM     25  C   UNL     1     -46.546 -16.323 -18.676  0.00  0.00    +0.000 A 
ATOM     26  C   UNL     1     -46.676 -14.989 -18.998  0.00  0.00    +0.000 A 
ATOM     27  C   UNL     1     -46.993 -13.899 -18.189  0.00  0.00    +0.000 A 
ATOM     28  C   UNL     1     -47.055 -12.633 -18.798  0.00  0.00    +0.000 A 
ATOM     29  C   UNL     1     -46.803 -12.488 -20.180  0.00  0.00    +0.000 A 
ATOM     30  C   UNL     1     -46.486 -13.608 -20.970  0.00  0.00    +0.000 A 
ATOM     31  C   UNL     1     -46.433 -14.847 -20.336  0.00  0.00    +0.000 A 
ATOM     32  O   UNL     1     -46.159 -16.006 -20.869  0.00  0.00    +0.000 OA
ENDBRANCH  22  24
ENDBRANCH   5  22
TORSDOF 4
ENDMDL
