MODEL 1
REMARK VINA RESULT:      -6.7      0.000      0.000
REMARK  Name = ZINC000018200369
REMARK  2 active torsions:
REMARK  status: ('A' for Active; 'I' for Inactive)
REMARK    1  A    between atoms: C_1  and  C_31
REMARK    2  A    between atoms: C_3  and  O_4
REMARK                            x       y       z     vdW  Elec       q    Type
REMARK                         _______ _______ _______ _____ _____    ______ ____
ROOT
ATOM      1  C   UNL     1     -44.038  -6.520 -31.346  0.00  0.00    +0.000 C 
ATOM      2  C   UNL     1     -44.998  -7.010 -32.385  0.00  0.00    +0.000 A 
ATOM      3  C   UNL     1     -44.894  -7.204 -33.740  0.00  0.00    +0.000 A 
ATOM      4  N   UNL     1     -46.071  -7.655 -34.227  0.00  0.00    +0.000 NA
ATOM      5  N   UNL     1     -46.928  -7.754 -33.215  0.00  0.00    +0.000 N 
ATOM      6  C   UNL     1     -46.274  -7.364 -32.107  0.00  0.00    +0.000 A 
ATOM      7  N   UNL     1     -46.797  -7.327 -30.787  0.00  0.00    +0.000 N 
ATOM      8  C   UNL     1     -45.926  -6.949 -29.704  0.00  0.00    +0.000 C 
ATOM      9  C   UNL     1     -44.630  -6.578 -29.932  0.00  0.00    +0.000 C 
ATOM     10  C   UNL     1     -43.743  -6.287 -28.778  0.00  0.00    +0.000 C 
ATOM     11  O   UNL     1     -42.525  -6.024 -28.960  0.00  0.00    +0.000 OA
ATOM     12  C   UNL     1     -44.282  -6.276 -27.378  0.00  0.00    +0.000 C 
ATOM     13  C   UNL     1     -45.484  -7.205 -27.221  0.00  0.00    +0.000 C 
ATOM     14  C   UNL     1     -46.126  -6.941 -25.877  0.00  0.00    +0.000 C 
ATOM     15  C   UNL     1     -45.041  -8.660 -27.263  0.00  0.00    +0.000 C 
ATOM     16  C   UNL     1     -46.514  -6.928 -28.318  0.00  0.00    +0.000 C 
ATOM     17  H   UNL     1     -47.863  -8.057 -33.267  0.00  0.00    +0.000 HD
ATOM     18  H   UNL     1     -47.740  -7.557 -30.613  0.00  0.00    +0.000 HD
ENDROOT
BRANCH   1  29
ATOM     19  C   UNL     1     -41.174  -6.043 -32.243  0.00  0.00    +0.000 C 
ATOM     20  C   UNL     1     -42.163  -4.933 -32.114  0.00  0.00    +0.000 A 
ATOM     21  N   UNL     1     -41.759  -3.669 -32.405  0.00  0.00    +0.000 NA
ATOM     22  C   UNL     1     -42.606  -2.614 -32.302  0.00  0.00    +0.000 A 
ATOM     23  C   UNL     1     -42.174  -1.321 -32.605  0.00  0.00    +0.000 A 
ATOM     24  C   UNL     1     -43.063  -0.246 -32.493  0.00  0.00    +0.000 A 
ATOM     25  C   UNL     1     -44.381  -0.464 -32.077  0.00  0.00    +0.000 A 
ATOM     26  C   UNL     1     -44.818  -1.758 -31.772  0.00  0.00    +0.000 A 
ATOM     27  C   UNL     1     -43.933  -2.833 -31.884  0.00  0.00    +0.000 A 
ATOM     28  N   UNL     1     -44.340  -4.095 -31.592  0.00  0.00    +0.000 NA
ATOM     29  C   UNL     1     -43.496  -5.157 -31.696  0.00  0.00    +0.000 A 
ENDBRANCH   1  29
BRANCH   3  30
ATOM     30  O   UNL     1     -43.764  -6.977 -34.514  0.00  0.00    +0.000 OA
ATOM     31  H   UNL     1     -43.097  -7.631 -34.574  0.00  0.00    +0.000 HD
ENDBRANCH   3  30
TORSDOF 2
ENDMDL
MODEL 2
REMARK VINA RESULT:      -6.5     14.674     16.692
REMARK  Name = ZINC000018200369
REMARK  2 active torsions:
REMARK  status: ('A' for Active; 'I' for Inactive)
REMARK    1  A    between atoms: C_1  and  C_31
REMARK    2  A    between atoms: C_3  and  O_4
REMARK                            x       y       z     vdW  Elec       q    Type
REMARK                         _______ _______ _______ _____ _____    ______ ____
ROOT
ATOM      1  C   UNL     1     -43.062 -18.049 -20.372  0.00  0.00    +0.000 C 
ATOM      2  C   UNL     1     -42.996 -19.335 -19.608  0.00  0.00    +0.000 A 
ATOM      3  C   UNL     1     -42.046 -20.321 -19.514  0.00  0.00    +0.000 A 
ATOM      4  N   UNL     1     -42.483 -21.297 -18.689  0.00  0.00    +0.000 NA
ATOM      5  N   UNL     1     -43.692 -20.959 -18.250  0.00  0.00    +0.000 N 
ATOM      6  C   UNL     1     -43.995 -19.774 -18.809  0.00  0.00    +0.000 A 
ATOM      7  N   UNL     1     -45.185 -19.025 -18.606  0.00  0.00    +0.000 N 
ATOM      8  C   UNL     1     -45.308 -17.734 -19.232  0.00  0.00    +0.000 C 
ATOM      9  C   UNL     1     -44.330 -17.246 -20.053  0.00  0.00    +0.000 C 
ATOM     10  C   UNL     1     -44.458 -15.873 -20.600  0.00  0.00    +0.000 C 
ATOM     11  O   UNL     1     -43.532 -15.372 -21.291  0.00  0.00    +0.000 OA
ATOM     12  C   UNL     1     -45.699 -15.063 -20.366  0.00  0.00    +0.000 C 
ATOM     13  C   UNL     1     -46.394 -15.449 -19.061  0.00  0.00    +0.000 C 
ATOM     14  C   UNL     1     -47.756 -14.792 -19.027  0.00  0.00    +0.000 C 
ATOM     15  C   UNL     1     -45.594 -14.955 -17.866  0.00  0.00    +0.000 C 
ATOM     16  C   UNL     1     -46.581 -16.966 -18.990  0.00  0.00    +0.000 C 
ATOM     17  H   UNL     1     -44.258 -21.477 -17.633  0.00  0.00    +0.000 HD
ATOM     18  H   UNL     1     -45.914 -19.381 -18.047  0.00  0.00    +0.000 HD
ENDROOT
BRANCH   1  29
ATOM     19  C   UNL     1     -40.517 -17.314 -21.860  0.00  0.00    +0.000 C 
ATOM     20  C   UNL     1     -41.688 -17.934 -22.545  0.00  0.00    +0.000 A 
ATOM     21  N   UNL     1     -41.607 -18.171 -23.880  0.00  0.00    +0.000 NA
ATOM     22  C   UNL     1     -42.638 -18.727 -24.564  0.00  0.00    +0.000 A 
ATOM     23  C   UNL     1     -42.537 -18.964 -25.937  0.00  0.00    +0.000 A 
ATOM     24  C   UNL     1     -43.611 -19.538 -26.625  0.00  0.00    +0.000 A 
ATOM     25  C   UNL     1     -44.785 -19.875 -25.942  0.00  0.00    +0.000 A 
ATOM     26  C   UNL     1     -44.890 -19.639 -24.566  0.00  0.00    +0.000 A 
ATOM     27  C   UNL     1     -43.819 -19.067 -23.876  0.00  0.00    +0.000 A 
ATOM     28  N   UNL     1     -43.904 -18.831 -22.543  0.00  0.00    +0.000 NA
ATOM     29  C   UNL     1     -42.872 -18.276 -21.850  0.00  0.00    +0.000 A 
ENDBRANCH   1  29
BRANCH   3  30
ATOM     30  O   UNL     1     -40.818 -20.338 -20.161  0.00  0.00    +0.000 OA
ATOM     31  H   UNL     1     -40.168 -20.966 -19.916  0.00  0.00    +0.000 HD
ENDBRANCH   3  30
TORSDOF 2
ENDMDL
MODEL 3
REMARK VINA RESULT:      -6.4      3.023      6.953
REMARK  Name = ZINC000018200369
REMARK  2 active torsions:
REMARK  status: ('A' for Active; 'I' for Inactive)
REMARK    1  A    between atoms: C_1  and  C_31
REMARK    2  A    between atoms: C_3  and  O_4
REMARK                            x       y       z     vdW  Elec       q    Type
REMARK                         _______ _______ _______ _____ _____    ______ ____
ROOT
ATOM      1  C   UNL     1     -45.044  -6.049 -28.428  0.00  0.00    +0.000 C 
ATOM      2  C   UNL     1     -45.962  -5.820 -27.268  0.00  0.00    +0.000 A 
ATOM      3  C   UNL     1     -45.927  -6.214 -25.954  0.00  0.00    +0.000 A 
ATOM      4  N   UNL     1     -47.021  -5.750 -25.311  0.00  0.00    +0.000 NA
ATOM      5  N   UNL     1     -47.756  -5.066 -26.183  0.00  0.00    +0.000 N 
ATOM      6  C   UNL     1     -47.111  -5.112 -27.362  0.00  0.00    +0.000 A 
ATOM      7  N   UNL     1     -47.524  -4.499 -28.575  0.00  0.00    +0.000 N 
ATOM      8  C   UNL     1     -46.666  -4.593 -29.727  0.00  0.00    +0.000 C 
ATOM      9  C   UNL     1     -45.497  -5.300 -29.687  0.00  0.00    +0.000 C 
ATOM     10  C   UNL     1     -44.600  -5.290 -30.870  0.00  0.00    +0.000 C 
ATOM     11  O   UNL     1     -43.481  -5.866 -30.827  0.00  0.00    +0.000 OA
ATOM     12  C   UNL     1     -45.017  -4.619 -32.146  0.00  0.00    +0.000 C 
ATOM     13  C   UNL     1     -45.986  -3.466 -31.894  0.00  0.00    +0.000 C 
ATOM     14  C   UNL     1     -46.561  -3.020 -33.221  0.00  0.00    +0.000 C 
ATOM     15  C   UNL     1     -45.258  -2.287 -31.267  0.00  0.00    +0.000 C 
ATOM     16  C   UNL     1     -47.134  -3.926 -30.994  0.00  0.00    +0.000 C 
ATOM     17  H   UNL     1     -48.610  -4.612 -26.000  0.00  0.00    +0.000 HD
ATOM     18  H   UNL     1     -48.383  -4.018 -28.627  0.00  0.00    +0.000 HD
ENDROOT
BRANCH   1  29
ATOM     19  C   UNL     1     -42.413  -7.460 -27.860  0.00  0.00    +0.000 C 
ATOM     20  C   UNL     1     -43.599  -8.179 -28.409  0.00  0.00    +0.000 A 
ATOM     21  N   UNL     1     -43.489  -9.509 -28.665  0.00  0.00    +0.000 NA
ATOM     22  C   UNL     1     -44.528 -10.221 -29.171  0.00  0.00    +0.000 A 
ATOM     23  C   UNL     1     -44.397 -11.588 -29.427  0.00  0.00    +0.000 A 
ATOM     24  C   UNL     1     -45.479 -12.305 -29.949  0.00  0.00    +0.000 A 
ATOM     25  C   UNL     1     -46.690 -11.656 -30.214  0.00  0.00    +0.000 A 
ATOM     26  C   UNL     1     -46.825 -10.287 -29.958  0.00  0.00    +0.000 A 
ATOM     27  C   UNL     1     -45.746  -9.568 -29.436  0.00  0.00    +0.000 A 
ATOM     28  N   UNL     1     -45.860  -8.240 -29.182  0.00  0.00    +0.000 NA
ATOM     29  C   UNL     1     -44.823  -7.521 -28.673  0.00  0.00    +0.000 A 
ENDBRANCH   1  29
BRANCH   3  30
ATOM     30  O   UNL     1     -44.934  -6.976 -25.354  0.00  0.00    +0.000 OA
ATOM     31  H   UNL     1     -45.118  -7.453 -24.570  0.00  0.00    +0.000 HD
ENDBRANCH   3  30
TORSDOF 2
ENDMDL
