MODEL 1
REMARK VINA RESULT:      -6.9      0.000      0.000
REMARK  Name = ZINC000031809031
REMARK  1 active torsions:
REMARK  status: ('A' for Active; 'I' for Inactive)
REMARK    1  A    between atoms: C_7  and  C_24
REMARK                            x       y       z     vdW  Elec       q    Type
REMARK                         _______ _______ _______ _____ _____    ______ ____
ROOT
ATOM      1  C   UNL     1     -47.424  -4.503 -26.214  0.00  0.00    +0.000 C 
ATOM      2  C   UNL     1     -46.961  -4.749 -27.609  0.00  0.00    +0.000 A 
ATOM      3  N   UNL     1     -46.818  -3.774 -28.524  0.00  0.00    +0.000 NA
ATOM      4  N   UNL     1     -46.391  -4.336 -29.643  0.00  0.00    +0.000 N 
ATOM      5  C   UNL     1     -46.225  -5.666 -29.454  0.00  0.00    +0.000 A 
ATOM      6  C   UNL     1     -46.604  -5.974 -28.148  0.00  0.00    +0.000 A 
ATOM      7  C   UNL     1     -46.598  -7.267 -27.382  0.00  0.00    +0.000 C 
ATOM      8  S   UNL     1     -46.872  -8.765 -28.380  0.00  0.00    +0.000 S 
ATOM      9  C   UNL     1     -45.240  -8.669 -29.150  0.00  0.00    +0.000 C 
ATOM     10  C   UNL     1     -45.324  -7.910 -30.422  0.00  0.00    +0.000 C 
ATOM     11  O   UNL     1     -45.015  -8.497 -31.490  0.00  0.00    +0.000 OA
ATOM     12  N   UNL     1     -45.705  -6.532 -30.476  0.00  0.00    +0.000 N 
ATOM     13  H   UNL     1     -45.592  -6.109 -31.357  0.00  0.00    +0.000 HD
ATOM     14  C   UNL     1     -46.102  -3.578 -30.826  0.00  0.00    +0.000 A 
ATOM     15  N   UNL     1     -45.564  -2.325 -30.722  0.00  0.00    +0.000 NA
ATOM     16  C   UNL     1     -45.303  -1.562 -31.831  0.00  0.00    +0.000 A 
ATOM     17  N   UNL     1     -45.590  -2.034 -33.081  0.00  0.00    +0.000 NA
ATOM     18  C   UNL     1     -46.135  -3.270 -33.186  0.00  0.00    +0.000 A 
ATOM     19  N   UNL     1     -46.534  -3.873 -34.312  0.00  0.00    +0.000 N 
ATOM     20  C   UNL     1     -47.056  -5.041 -33.849  0.00  0.00    +0.000 A 
ATOM     21  N   UNL     1     -46.998  -5.174 -32.495  0.00  0.00    +0.000 NA
ATOM     22  C   UNL     1     -46.399  -4.039 -32.109  0.00  0.00    +0.000 A 
ATOM     23  H   UNL     1     -46.466  -3.552 -35.240  0.00  0.00    +0.000 HD
ENDROOT
BRANCH   7  24
ATOM     24  C   UNL     1     -45.485  -7.390 -26.375  0.00  0.00    +0.000 A 
ATOM     25  C   UNL     1     -44.172  -7.022 -26.717  0.00  0.00    +0.000 A 
ATOM     26  C   UNL     1     -43.139  -7.131 -25.784  0.00  0.00    +0.000 A 
ATOM     27  C   UNL     1     -43.408  -7.607 -24.499  0.00  0.00    +0.000 A 
ATOM     28  F   UNL     1     -42.407  -7.714 -23.593  0.00  0.00    +0.000 F 
ATOM     29  C   UNL     1     -44.710  -7.973 -24.148  0.00  0.00    +0.000 A 
ATOM     30  C   UNL     1     -45.748  -7.867 -25.077  0.00  0.00    +0.000 A 
ATOM     31 CL   UNL     1     -47.369  -8.331 -24.578  0.00  0.00    +0.000 Cl
ENDBRANCH   7  24
TORSDOF 1
ENDMDL
MODEL 2
REMARK VINA RESULT:      -6.9      5.334      7.311
REMARK  Name = ZINC000031809031
REMARK  1 active torsions:
REMARK  status: ('A' for Active; 'I' for Inactive)
REMARK    1  A    between atoms: C_7  and  C_24
REMARK                            x       y       z     vdW  Elec       q    Type
REMARK                         _______ _______ _______ _____ _____    ______ ____
ROOT
ATOM      1  C   UNL     1     -47.199  -3.383 -33.708  0.00  0.00    +0.000 C 
ATOM      2  C   UNL     1     -46.527  -4.710 -33.797  0.00  0.00    +0.000 A 
ATOM      3  N   UNL     1     -46.837  -5.636 -34.722  0.00  0.00    +0.000 NA
ATOM      4  N   UNL     1     -46.053  -6.682 -34.517  0.00  0.00    +0.000 N 
ATOM      5  C   UNL     1     -45.214  -6.431 -33.486  0.00  0.00    +0.000 A 
ATOM      6  C   UNL     1     -45.506  -5.166 -32.981  0.00  0.00    +0.000 A 
ATOM      7  C   UNL     1     -44.882  -4.361 -31.874  0.00  0.00    +0.000 C 
ATOM      8  S   UNL     1     -44.188  -5.333 -30.501  0.00  0.00    +0.000 S 
ATOM      9  C   UNL     1     -42.796  -5.923 -31.492  0.00  0.00    +0.000 C 
ATOM     10  C   UNL     1     -43.139  -7.220 -32.123  0.00  0.00    +0.000 C 
ATOM     11  O   UNL     1     -42.446  -8.228 -31.833  0.00  0.00    +0.000 OA
ATOM     12  N   UNL     1     -44.198  -7.362 -33.074  0.00  0.00    +0.000 N 
ATOM     13  H   UNL     1     -44.237  -8.239 -33.519  0.00  0.00    +0.000 HD
ATOM     14  C   UNL     1     -46.095  -7.851 -35.348  0.00  0.00    +0.000 A 
ATOM     15  N   UNL     1     -46.339  -7.730 -36.689  0.00  0.00    +0.000 NA
ATOM     16  C   UNL     1     -46.414  -8.829 -37.506  0.00  0.00    +0.000 A 
ATOM     17  N   UNL     1     -46.260 -10.086 -36.993  0.00  0.00    +0.000 NA
ATOM     18  C   UNL     1     -46.031 -10.209 -35.664  0.00  0.00    +0.000 A 
ATOM     19  N   UNL     1     -45.912 -11.351 -34.977  0.00  0.00    +0.000 N 
ATOM     20  C   UNL     1     -45.763 -10.910 -33.698  0.00  0.00    +0.000 A 
ATOM     21  N   UNL     1     -45.791  -9.554 -33.575  0.00  0.00    +0.000 NA
ATOM     22  C   UNL     1     -45.951  -9.142 -34.840  0.00  0.00    +0.000 A 
ATOM     23  H   UNL     1     -45.928 -12.276 -35.312  0.00  0.00    +0.000 HD
ENDROOT
BRANCH   7  24
ATOM     24  C   UNL     1     -43.999  -3.235 -32.345  0.00  0.00    +0.000 A 
ATOM     25  C   UNL     1     -42.946  -3.483 -33.241  0.00  0.00    +0.000 A 
ATOM     26  C   UNL     1     -42.129  -2.440 -33.682  0.00  0.00    +0.000 A 
ATOM     27  C   UNL     1     -42.357  -1.138 -33.231  0.00  0.00    +0.000 A 
ATOM     28  F   UNL     1     -41.564  -0.126 -33.657  0.00  0.00    +0.000 F 
ATOM     29  C   UNL     1     -43.403  -0.880 -32.342  0.00  0.00    +0.000 A 
ATOM     30  C   UNL     1     -44.225  -1.919 -31.897  0.00  0.00    +0.000 A 
ATOM     31 CL   UNL     1     -45.532  -1.536 -30.786  0.00  0.00    +0.000 Cl
ENDBRANCH   7  24
TORSDOF 1
ENDMDL
MODEL 3
REMARK VINA RESULT:      -6.7      4.475      7.204
REMARK  Name = ZINC000031809031
REMARK  1 active torsions:
REMARK  status: ('A' for Active; 'I' for Inactive)
REMARK    1  A    between atoms: C_7  and  C_24
REMARK                            x       y       z     vdW  Elec       q    Type
REMARK                         _______ _______ _______ _____ _____    ______ ____
ROOT
ATOM      1  C   UNL     1     -42.296  -6.129 -28.919  0.00  0.00    +0.000 C 
ATOM      2  C   UNL     1     -43.473  -7.023 -29.110  0.00  0.00    +0.000 A 
ATOM      3  N   UNL     1     -43.962  -7.819 -28.143  0.00  0.00    +0.000 NA
ATOM      4  N   UNL     1     -45.000  -8.467 -28.646  0.00  0.00    +0.000 N 
ATOM      5  C   UNL     1     -45.209  -8.076 -29.924  0.00  0.00    +0.000 A 
ATOM      6  C   UNL     1     -44.223  -7.151 -30.266  0.00  0.00    +0.000 A 
ATOM      7  C   UNL     1     -43.981  -6.366 -31.525  0.00  0.00    +0.000 C 
ATOM      8  S   UNL     1     -44.495  -7.187 -33.066  0.00  0.00    +0.000 S 
ATOM      9  C   UNL     1     -46.254  -6.970 -32.711  0.00  0.00    +0.000 C 
ATOM     10  C   UNL     1     -46.778  -8.162 -32.002  0.00  0.00    +0.000 C 
ATOM     11  O   UNL     1     -47.694  -8.828 -32.548  0.00  0.00    +0.000 OA
ATOM     12  N   UNL     1     -46.311  -8.560 -30.709  0.00  0.00    +0.000 N 
ATOM     13  H   UNL     1     -46.830  -9.284 -30.290  0.00  0.00    +0.000 HD
ATOM     14  C   UNL     1     -45.785  -9.386 -27.872  0.00  0.00    +0.000 A 
ATOM     15  N   UNL     1     -46.008  -9.146 -26.544  0.00  0.00    +0.000 NA
ATOM     16  C   UNL     1     -46.728 -10.019 -25.769  0.00  0.00    +0.000 A 
ATOM     17  N   UNL     1     -47.235 -11.169 -26.308  0.00  0.00    +0.000 NA
ATOM     18  C   UNL     1     -47.004 -11.414 -27.619  0.00  0.00    +0.000 A 
ATOM     19  N   UNL     1     -47.367 -12.506 -28.303  0.00  0.00    +0.000 N 
ATOM     20  C   UNL     1     -46.836 -12.271 -29.533  0.00  0.00    +0.000 A 
ATOM     21  N   UNL     1     -46.163 -11.091 -29.629  0.00  0.00    +0.000 NA
ATOM     22  C   UNL     1     -46.299 -10.570 -28.402  0.00  0.00    +0.000 A 
ATOM     23  H   UNL     1     -47.887 -13.282 -27.993  0.00  0.00    +0.000 HD
ENDROOT
BRANCH   7  24
ATOM     24  C   UNL     1     -44.369  -4.913 -31.438  0.00  0.00    +0.000 A 
ATOM     25  C   UNL     1     -45.552  -4.531 -30.783  0.00  0.00    +0.000 A 
ATOM     26  C   UNL     1     -45.912  -3.185 -30.697  0.00  0.00    +0.000 A 
ATOM     27  C   UNL     1     -45.093  -2.207 -31.265  0.00  0.00    +0.000 A 
ATOM     28  F   UNL     1     -45.442  -0.901 -31.183  0.00  0.00    +0.000 F 
ATOM     29  C   UNL     1     -43.913  -2.576 -31.916  0.00  0.00    +0.000 A 
ATOM     30  C   UNL     1     -43.547  -3.921 -32.006  0.00  0.00    +0.000 A 
ATOM     31 CL   UNL     1     -42.048  -4.328 -32.828  0.00  0.00    +0.000 Cl
ENDBRANCH   7  24
TORSDOF 1
ENDMDL
