MODEL 1
REMARK VINA RESULT:      -7.0      0.000      0.000
REMARK  Name = ZINC000033168752 ZINC33168752 PubChem-92884272
REMARK  7 active torsions:
REMARK  status: ('A' for Active; 'I' for Inactive)
REMARK    1  A    between atoms: C_5  and  C_21
REMARK    2  A    between atoms: C_7  and  S_13
REMARK    3  A    between atoms: S_13  and  C_18
REMARK    4  A    between atoms: N_23  and  C_25
REMARK    5  A    between atoms: C_25  and  C_26
REMARK    6  A    between atoms: C_28  and  O_34
REMARK    7  A    between atoms: C_31  and  O_32
REMARK                            x       y       z     vdW  Elec       q    Type
REMARK                         _______ _______ _______ _____ _____    ______ ____
ROOT
ATOM      1  N   UNL     1     -45.677  -6.861 -29.669  0.00  0.00    +0.000 N 
ATOM      2  C   UNL     1     -45.546  -6.681 -28.219  0.00  0.00    +0.000 C 
ATOM      3  C   UNL     1     -46.694  -5.870 -27.634  0.00  0.00    +0.000 C 
ATOM      4  C   UNL     1     -46.885  -4.616 -28.466  0.00  0.00    +0.000 C 
ATOM      5  C   UNL     1     -47.297  -4.959 -29.901  0.00  0.00    +0.000 C 
ATOM      6  C   UNL     1     -46.847  -6.348 -30.387  0.00  0.00    +0.000 C 
ATOM      7  C   UNL     1     -45.454  -9.148 -30.643  0.00  0.00    +0.000 A 
ATOM      8  C   UNL     1     -44.897  -7.903 -30.278  0.00  0.00    +0.000 A 
ATOM      9  N   UNL     1     -43.585  -7.670 -30.559  0.00  0.00    +0.000 NA
ATOM     10  C   UNL     1     -42.805  -8.600 -31.168  0.00  0.00    +0.000 A 
ATOM     11  C   UNL     1     -43.360  -9.823 -31.532  0.00  0.00    +0.000 A 
ATOM     12  N   UNL     1     -44.668 -10.064 -31.270  0.00  0.00    +0.000 NA
ENDROOT
BRANCH   5  13
ATOM     13  C   UNL     1     -46.858  -3.888 -30.842  0.00  0.00    +0.000 C 
ATOM     14  O   UNL     1     -46.317  -2.847 -30.381  0.00  0.00    +0.000 OA
ATOM     15  N   UNL     1     -47.031  -4.050 -32.250  0.00  0.00    +0.000 N 
ATOM     16  H   UNL     1     -47.400  -4.898 -32.590  0.00  0.00    +0.000 HD
BRANCH  15  17
ATOM     17  C   UNL     1     -46.680  -3.006 -33.198  0.00  0.00    +0.000 C 
BRANCH  17  18
ATOM     18  C   UNL     1     -45.199  -2.960 -33.370  0.00  0.00    +0.000 A 
ATOM     19  C   UNL     1     -44.530  -1.742 -33.215  0.00  0.00    +0.000 A 
ATOM     20  C   UNL     1     -43.141  -1.662 -33.400  0.00  0.00    +0.000 A 
ATOM     21  C   UNL     1     -42.428  -2.813 -33.742  0.00  0.00    +0.000 A 
ATOM     22  C   UNL     1     -43.092  -4.031 -33.902  0.00  0.00    +0.000 A 
ATOM     23  C   UNL     1     -44.482  -4.115 -33.720  0.00  0.00    +0.000 A 
BRANCH  20  24
ATOM     24  O   UNL     1     -42.452  -0.455 -33.253  0.00  0.00    +0.000 OA
ATOM     25  C   UNL     1     -41.187  -0.365 -32.610  0.00  0.00    +0.000 C 
ENDBRANCH  20  24
BRANCH  23  26
ATOM     26  O   UNL     1     -45.161  -5.330 -33.875  0.00  0.00    +0.000 OA
ATOM     27  C   UNL     1     -44.498  -6.586 -33.891  0.00  0.00    +0.000 C 
ENDBRANCH  23  26
ENDBRANCH  17  18
ENDBRANCH  15  17
ENDBRANCH   5  13
BRANCH   7  28
ATOM     28  S   UNL     1     -47.187  -9.539 -30.394  0.00  0.00    +0.000 S 
BRANCH  28  33
ATOM     29  C   UNL     1     -46.125 -13.650 -26.048  0.00  0.00    +0.000 C 
ATOM     30  C   UNL     1     -46.376 -12.642 -27.110  0.00  0.00    +0.000 A 
ATOM     31  C   UNL     1     -46.237 -11.280 -26.830  0.00  0.00    +0.000 A 
ATOM     32  C   UNL     1     -46.478 -10.334 -27.831  0.00  0.00    +0.000 A 
ATOM     33  C   UNL     1     -46.853 -10.747 -29.113  0.00  0.00    +0.000 A 
ATOM     34  C   UNL     1     -46.999 -12.110 -29.390  0.00  0.00    +0.000 A 
ATOM     35  C   UNL     1     -46.758 -13.057 -28.390  0.00  0.00    +0.000 A 
ENDBRANCH  28  33
ENDBRANCH   7  28
TORSDOF 7
ENDMDL
MODEL 2
REMARK VINA RESULT:      -6.7      3.010      8.647
REMARK  Name = ZINC000033168752 ZINC33168752 PubChem-92884272
REMARK  7 active torsions:
REMARK  status: ('A' for Active; 'I' for Inactive)
REMARK    1  A    between atoms: C_5  and  C_21
REMARK    2  A    between atoms: C_7  and  S_13
REMARK    3  A    between atoms: S_13  and  C_18
REMARK    4  A    between atoms: N_23  and  C_25
REMARK    5  A    between atoms: C_25  and  C_26
REMARK    6  A    between atoms: C_28  and  O_34
REMARK    7  A    between atoms: C_31  and  O_32
REMARK                            x       y       z     vdW  Elec       q    Type
REMARK                         _______ _______ _______ _____ _____    ______ ____
ROOT
ATOM      1  N   UNL     1     -45.363  -6.771 -31.409  0.00  0.00    +0.000 N 
ATOM      2  C   UNL     1     -44.215  -6.198 -32.122  0.00  0.00    +0.000 C 
ATOM      3  C   UNL     1     -44.255  -6.504 -33.613  0.00  0.00    +0.000 C 
ATOM      4  C   UNL     1     -44.512  -7.987 -33.806  0.00  0.00    +0.000 C 
ATOM      5  C   UNL     1     -45.883  -8.388 -33.255  0.00  0.00    +0.000 C 
ATOM      6  C   UNL     1     -46.420  -7.480 -32.134  0.00  0.00    +0.000 C 
ATOM      7  C   UNL     1     -46.694  -5.323 -29.873  0.00  0.00    +0.000 A 
ATOM      8  C   UNL     1     -45.655  -6.250 -30.102  0.00  0.00    +0.000 A 
ATOM      9  N   UNL     1     -44.937  -6.699 -29.035  0.00  0.00    +0.000 NA
ATOM     10  C   UNL     1     -45.189  -6.274 -27.770  0.00  0.00    +0.000 A 
ATOM     11  C   UNL     1     -46.220  -5.365 -27.548  0.00  0.00    +0.000 A 
ATOM     12  N   UNL     1     -46.952  -4.919 -28.599  0.00  0.00    +0.000 NA
ENDROOT
BRANCH   5  13
ATOM     13  C   UNL     1     -45.881  -9.821 -32.838  0.00  0.00    +0.000 C 
ATOM     14  O   UNL     1     -45.957 -10.718 -33.719  0.00  0.00    +0.000 OA
ATOM     15  N   UNL     1     -45.771 -10.169 -31.457  0.00  0.00    +0.000 N 
ATOM     16  H   UNL     1     -45.651  -9.452 -30.794  0.00  0.00    +0.000 HD
BRANCH  15  17
ATOM     17  C   UNL     1     -45.831 -11.547 -31.000  0.00  0.00    +0.000 C 
BRANCH  17  18
ATOM     18  C   UNL     1     -46.121 -11.581 -29.538  0.00  0.00    +0.000 A 
ATOM     19  C   UNL     1     -46.631 -10.438 -28.914  0.00  0.00    +0.000 A 
ATOM     20  C   UNL     1     -46.885 -10.430 -27.534  0.00  0.00    +0.000 A 
ATOM     21  C   UNL     1     -46.623 -11.578 -26.784  0.00  0.00    +0.000 A 
ATOM     22  C   UNL     1     -46.110 -12.721 -27.400  0.00  0.00    +0.000 A 
ATOM     23  C   UNL     1     -45.852 -12.732 -28.781  0.00  0.00    +0.000 A 
BRANCH  20  24
ATOM     24  O   UNL     1     -47.392  -9.298 -26.890  0.00  0.00    +0.000 OA
ATOM     25  C   UNL     1     -47.117  -9.003 -25.526  0.00  0.00    +0.000 C 
ENDBRANCH  20  24
BRANCH  23  26
ATOM     26  O   UNL     1     -45.340 -13.871 -29.413  0.00  0.00    +0.000 OA
ATOM     27  C   UNL     1     -44.218 -14.588 -28.918  0.00  0.00    +0.000 C 
ENDBRANCH  23  26
ENDBRANCH  17  18
ENDBRANCH  15  17
ENDBRANCH   5  13
BRANCH   7  28
ATOM     28  S   UNL     1     -47.756  -4.720 -31.188  0.00  0.00    +0.000 S 
BRANCH  28  33
ATOM     29  C   UNL     1     -43.664  -0.683 -33.152  0.00  0.00    +0.000 C 
ATOM     30  C   UNL     1     -44.670  -1.663 -32.669  0.00  0.00    +0.000 A 
ATOM     31  C   UNL     1     -44.893  -1.819 -31.298  0.00  0.00    +0.000 A 
ATOM     32  C   UNL     1     -45.837  -2.745 -30.845  0.00  0.00    +0.000 A 
ATOM     33  C   UNL     1     -46.562  -3.514 -31.761  0.00  0.00    +0.000 A 
ATOM     34  C   UNL     1     -46.333  -3.363 -33.133  0.00  0.00    +0.000 A 
ATOM     35  C   UNL     1     -45.389  -2.436 -33.586  0.00  0.00    +0.000 A 
ENDBRANCH  28  33
ENDBRANCH   7  28
TORSDOF 7
ENDMDL
MODEL 3
REMARK VINA RESULT:      -6.6      3.275      9.564
REMARK  Name = ZINC000033168752 ZINC33168752 PubChem-92884272
REMARK  7 active torsions:
REMARK  status: ('A' for Active; 'I' for Inactive)
REMARK    1  A    between atoms: C_5  and  C_21
REMARK    2  A    between atoms: C_7  and  S_13
REMARK    3  A    between atoms: S_13  and  C_18
REMARK    4  A    between atoms: N_23  and  C_25
REMARK    5  A    between atoms: C_25  and  C_26
REMARK    6  A    between atoms: C_28  and  O_34
REMARK    7  A    between atoms: C_31  and  O_32
REMARK                            x       y       z     vdW  Elec       q    Type
REMARK                         _______ _______ _______ _____ _____    ______ ____
ROOT
ATOM      1  N   UNL     1     -45.036  -7.494 -31.019  0.00  0.00    +0.000 N 
ATOM      2  C   UNL     1     -43.651  -7.384 -30.546  0.00  0.00    +0.000 C 
ATOM      3  C   UNL     1     -42.713  -8.326 -31.287  0.00  0.00    +0.000 C 
ATOM      4  C   UNL     1     -43.324  -9.716 -31.305  0.00  0.00    +0.000 C 
ATOM      5  C   UNL     1     -44.643  -9.732 -32.083  0.00  0.00    +0.000 C 
ATOM      6  C   UNL     1     -45.380  -8.383 -32.133  0.00  0.00    +0.000 C 
ATOM      7  C   UNL     1     -46.290  -5.423 -31.624  0.00  0.00    +0.000 A 
ATOM      8  C   UNL     1     -45.933  -6.421 -30.691  0.00  0.00    +0.000 A 
ATOM      9  N   UNL     1     -46.500  -6.387 -29.453  0.00  0.00    +0.000 NA
ATOM     10  C   UNL     1     -47.384  -5.420 -29.095  0.00  0.00    +0.000 A 
ATOM     11  C   UNL     1     -47.739  -4.443 -30.020  0.00  0.00    +0.000 A 
ATOM     12  N   UNL     1     -47.192  -4.472 -31.261  0.00  0.00    +0.000 NA
ENDROOT
BRANCH   5  13
ATOM     13  C   UNL     1     -45.533 -10.818 -31.580  0.00  0.00    +0.000 C 
ATOM     14  O   UNL     1     -45.878 -11.743 -32.363  0.00  0.00    +0.000 OA
ATOM     15  N   UNL     1     -45.971 -10.820 -30.221  0.00  0.00    +0.000 N 
ATOM     16  H   UNL     1     -45.638 -10.121 -29.613  0.00  0.00    +0.000 HD
BRANCH  15  17
ATOM     17  C   UNL     1     -46.891 -11.820 -29.706  0.00  0.00    +0.000 C 
BRANCH  17  18
ATOM     18  C   UNL     1     -46.169 -12.740 -28.782  0.00  0.00    +0.000 A 
ATOM     19  C   UNL     1     -45.229 -13.635 -29.303  0.00  0.00    +0.000 A 
ATOM     20  C   UNL     1     -44.555 -14.534 -28.462  0.00  0.00    +0.000 A 
ATOM     21  C   UNL     1     -44.831 -14.528 -27.093  0.00  0.00    +0.000 A 
ATOM     22  C   UNL     1     -45.771 -13.640 -26.567  0.00  0.00    +0.000 A 
ATOM     23  C   UNL     1     -46.450 -12.741 -27.407  0.00  0.00    +0.000 A 
BRANCH  20  24
ATOM     24  O   UNL     1     -43.614 -15.439 -28.961  0.00  0.00    +0.000 OA
ATOM     25  C   UNL     1     -42.446 -15.809 -28.240  0.00  0.00    +0.000 C 
ENDBRANCH  20  24
BRANCH  23  26
ATOM     26  O   UNL     1     -47.394 -11.842 -26.894  0.00  0.00    +0.000 OA
ATOM     27  C   UNL     1     -47.031 -10.639 -26.233  0.00  0.00    +0.000 C 
ENDBRANCH  23  26
ENDBRANCH  17  18
ENDBRANCH  15  17
ENDBRANCH   5  13
BRANCH   7  28
ATOM     28  S   UNL     1     -45.669  -5.410 -33.307  0.00  0.00    +0.000 S 
BRANCH  28  33
ATOM     29  C   UNL     1     -42.160  -0.520 -32.480  0.00  0.00    +0.000 C 
ATOM     30  C   UNL     1     -43.020  -1.716 -32.673  0.00  0.00    +0.000 A 
ATOM     31  C   UNL     1     -42.591  -2.966 -32.219  0.00  0.00    +0.000 A 
ATOM     32  C   UNL     1     -43.399  -4.092 -32.406  0.00  0.00    +0.000 A 
ATOM     33  C   UNL     1     -44.639  -3.968 -33.042  0.00  0.00    +0.000 A 
ATOM     34  C   UNL     1     -45.064  -2.718 -33.502  0.00  0.00    +0.000 A 
ATOM     35  C   UNL     1     -44.255  -1.592 -33.316  0.00  0.00    +0.000 A 
ENDBRANCH  28  33
ENDBRANCH   7  28
TORSDOF 7
ENDMDL
