MODEL 1
REMARK VINA RESULT:      -8.1      0.000      0.000
REMARK  Name = ZINC000257179241
REMARK  3 active torsions:
REMARK  status: ('A' for Active; 'I' for Inactive)
REMARK    1  A    between atoms: C_1  and  C_20
REMARK    2  A    between atoms: C_7  and  C_22
REMARK    3  A    between atoms: C_24  and  C_27
REMARK                            x       y       z     vdW  Elec       q    Type
REMARK                         _______ _______ _______ _____ _____    ______ ____
ROOT
ATOM      1  C   UNL     1     -46.537  -4.485 -31.468  0.00  0.00    +0.000 C 
ATOM      2  O   UNL     1     -47.721  -4.367 -31.052  0.00  0.00    +0.000 OA
ATOM      3  N   UNL     1     -45.969  -5.803 -31.621  0.00  0.00    +0.000 N 
ATOM      4  C   UNL     1     -46.842  -6.967 -31.758  0.00  0.00    +0.000 C 
ATOM      5  C   UNL     1     -47.534  -7.309 -30.442  0.00  0.00    +0.000 C 
ATOM      6  C   UNL     1     -46.664  -8.213 -29.579  0.00  0.00    +0.000 C 
ATOM      7  C   UNL     1     -45.599  -7.407 -28.850  0.00  0.00    +0.000 C 
ATOM      8  C   UNL     1     -44.386  -8.264 -28.522  0.00  0.00    +0.000 C 
ATOM      9  C   UNL     1     -43.621  -8.617 -29.791  0.00  0.00    +0.000 C 
ATOM     10  N   UNL     1     -42.463  -7.749 -29.977  0.00  0.00    +0.000 N 
ATOM     11  C   UNL     1     -42.523  -6.365 -30.343  0.00  0.00    +0.000 C 
ATOM     12  O   UNL     1     -41.452  -5.740 -30.564  0.00  0.00    +0.000 OA
ATOM     13  C   UNL     1     -43.820  -5.642 -30.470  0.00  0.00    +0.000 C 
ATOM     14  C   UNL     1     -44.534  -6.033 -31.754  0.00  0.00    +0.000 C 
ATOM     15  H   UNL     1     -41.573  -8.144 -29.840  0.00  0.00    +0.000 HD
ENDROOT
BRANCH   1  20
ATOM     16  C   UNL     1     -43.594  -0.581 -33.701  0.00  0.00    +0.000 C 
ATOM     17  C   UNL     1     -44.407  -1.460 -32.822  0.00  0.00    +0.000 A 
ATOM     18  C   UNL     1     -44.744  -1.182 -31.505  0.00  0.00    +0.000 A 
ATOM     19  C   UNL     1     -45.516  -2.196 -30.920  0.00  0.00    +0.000 A 
ATOM     20  C   UNL     1     -45.785  -3.253 -31.786  0.00  0.00    +0.000 A 
ATOM     21  S   UNL     1     -45.050  -2.943 -33.269  0.00  0.00    +0.000 S 
ENDBRANCH   1  20
BRANCH   7  22
ATOM     22  C   UNL     1     -46.155  -6.779 -27.618  0.00  0.00    +0.000 A 
ATOM     23  N   UNL     1     -46.200  -5.448 -27.419  0.00  0.00    +0.000 NA
ATOM     24  C   UNL     1     -46.778  -5.384 -26.200  0.00  0.00    +0.000 A 
ATOM     25  N   UNL     1     -47.062  -6.601 -25.698  0.00  0.00    +0.000 NA
ATOM     26  O   UNL     1     -46.662  -7.439 -26.606  0.00  0.00    +0.000 OA
BRANCH  24  27
ATOM     27  C   UNL     1     -47.069  -4.122 -25.503  0.00  0.00    +0.000 A 
ATOM     28  C   UNL     1     -47.284  -2.943 -26.230  0.00  0.00    +0.000 A 
ATOM     29  C   UNL     1     -47.560  -1.744 -25.566  0.00  0.00    +0.000 A 
ATOM     30  C   UNL     1     -47.623  -1.717 -24.170  0.00  0.00    +0.000 A 
ATOM     31  C   UNL     1     -47.410  -2.889 -23.438  0.00  0.00    +0.000 A 
ATOM     32  C   UNL     1     -47.134  -4.087 -24.102  0.00  0.00    +0.000 A 
ENDBRANCH  24  27
ENDBRANCH   7  22
TORSDOF 3
ENDMDL
MODEL 2
REMARK VINA RESULT:      -7.1     11.502     13.822
REMARK  Name = ZINC000257179241
REMARK  3 active torsions:
REMARK  status: ('A' for Active; 'I' for Inactive)
REMARK    1  A    between atoms: C_1  and  C_20
REMARK    2  A    between atoms: C_7  and  C_22
REMARK    3  A    between atoms: C_24  and  C_27
REMARK                            x       y       z     vdW  Elec       q    Type
REMARK                         _______ _______ _______ _____ _____    ______ ____
ROOT
ATOM      1  C   UNL     1     -45.181 -17.097 -25.575  0.00  0.00    +0.000 C 
ATOM      2  O   UNL     1     -46.257 -17.539 -25.088  0.00  0.00    +0.000 OA
ATOM      3  N   UNL     1     -44.105 -18.016 -25.864  0.00  0.00    +0.000 N 
ATOM      4  C   UNL     1     -44.385 -19.438 -26.045  0.00  0.00    +0.000 C 
ATOM      5  C   UNL     1     -44.743 -20.115 -24.725  0.00  0.00    +0.000 C 
ATOM      6  C   UNL     1     -43.496 -20.578 -23.986  0.00  0.00    +0.000 C 
ATOM      7  C   UNL     1     -42.837 -19.418 -23.253  0.00  0.00    +0.000 C 
ATOM      8  C   UNL     1     -41.348 -19.660 -23.060  0.00  0.00    +0.000 C 
ATOM      9  C   UNL     1     -40.615 -19.575 -24.394  0.00  0.00    +0.000 C 
ATOM     10  N   UNL     1     -39.977 -18.275 -24.571  0.00  0.00    +0.000 N 
ATOM     11  C   UNL     1     -40.671 -17.046 -24.823  0.00  0.00    +0.000 C 
ATOM     12  O   UNL     1     -40.007 -16.001 -25.050  0.00  0.00    +0.000 OA
ATOM     13  C   UNL     1     -42.159 -16.970 -24.821  0.00  0.00    +0.000 C 
ATOM     14  C   UNL     1     -42.733 -17.577 -26.092  0.00  0.00    +0.000 C 
ATOM     15  H   UNL     1     -38.996 -18.239 -24.514  0.00  0.00    +0.000 HD
ENDROOT
BRANCH   1  20
ATOM     16  C   UNL     1     -44.937 -11.735 -25.292  0.00  0.00    +0.000 C 
ATOM     17  C   UNL     1     -44.984 -13.164 -25.695  0.00  0.00    +0.000 A 
ATOM     18  C   UNL     1     -44.973 -13.626 -27.002  0.00  0.00    +0.000 A 
ATOM     19  C   UNL     1     -45.031 -15.025 -27.081  0.00  0.00    +0.000 A 
ATOM     20  C   UNL     1     -45.078 -15.646 -25.835  0.00  0.00    +0.000 A 
ATOM     21  S   UNL     1     -45.068 -14.463 -24.637  0.00  0.00    +0.000 S 
ENDBRANCH   1  20
BRANCH   7  22
ATOM     22  C   UNL     1     -43.507 -19.162 -21.947  0.00  0.00    +0.000 A 
ATOM     23  N   UNL     1     -44.147 -18.014 -21.653  0.00  0.00    +0.000 NA
ATOM     24  C   UNL     1     -44.576 -18.265 -20.398  0.00  0.00    +0.000 A 
ATOM     25  N   UNL     1     -44.217 -19.490 -19.964  0.00  0.00    +0.000 NA
ATOM     26  O   UNL     1     -43.556 -20.014 -20.952  0.00  0.00    +0.000 OA
BRANCH  24  27
ATOM     27  C   UNL     1     -45.355 -17.309 -19.597  0.00  0.00    +0.000 A 
ATOM     28  C   UNL     1     -44.733 -16.189 -19.028  0.00  0.00    +0.000 A 
ATOM     29  C   UNL     1     -45.474 -15.281 -18.265  0.00  0.00    +0.000 A 
ATOM     30  C   UNL     1     -46.843 -15.487 -18.068  0.00  0.00    +0.000 A 
ATOM     31  C   UNL     1     -47.469 -16.602 -18.633  0.00  0.00    +0.000 A 
ATOM     32  C   UNL     1     -46.729 -17.510 -19.395  0.00  0.00    +0.000 A 
ENDBRANCH  24  27
ENDBRANCH   7  22
TORSDOF 3
ENDMDL
MODEL 3
REMARK VINA RESULT:      -6.9      2.732      5.534
REMARK  Name = ZINC000257179241
REMARK  3 active torsions:
REMARK  status: ('A' for Active; 'I' for Inactive)
REMARK    1  A    between atoms: C_1  and  C_20
REMARK    2  A    between atoms: C_7  and  C_22
REMARK    3  A    between atoms: C_24  and  C_27
REMARK                            x       y       z     vdW  Elec       q    Type
REMARK                         _______ _______ _______ _____ _____    ______ ____
ROOT
ATOM      1  C   UNL     1     -42.541  -5.421 -31.754  0.00  0.00    +0.000 C 
ATOM      2  O   UNL     1     -42.242  -4.787 -30.706  0.00  0.00    +0.000 OA
ATOM      3  N   UNL     1     -43.315  -4.766 -32.782  0.00  0.00    +0.000 N 
ATOM      4  C   UNL     1     -43.355  -3.307 -32.851  0.00  0.00    +0.000 C 
ATOM      5  C   UNL     1     -44.177  -2.711 -31.711  0.00  0.00    +0.000 C 
ATOM      6  C   UNL     1     -45.655  -2.649 -32.069  0.00  0.00    +0.000 C 
ATOM      7  C   UNL     1     -46.316  -4.007 -31.883  0.00  0.00    +0.000 C 
ATOM      8  C   UNL     1     -47.533  -4.157 -32.782  0.00  0.00    +0.000 C 
ATOM      9  C   UNL     1     -47.110  -4.272 -34.241  0.00  0.00    +0.000 C 
ATOM     10  N   UNL     1     -47.103  -5.661 -34.687  0.00  0.00    +0.000 N 
ATOM     11  C   UNL     1     -46.146  -6.650 -34.284  0.00  0.00    +0.000 C 
ATOM     12  O   UNL     1     -46.187  -7.794 -34.808  0.00  0.00    +0.000 OA
ATOM     13  C   UNL     1     -45.103  -6.361 -33.260  0.00  0.00    +0.000 C 
ATOM     14  C   UNL     1     -43.995  -5.498 -33.844  0.00  0.00    +0.000 C 
ATOM     15  H   UNL     1     -47.808  -5.941 -35.313  0.00  0.00    +0.000 HD
ENDROOT
BRANCH   1  20
ATOM     16  C   UNL     1     -41.476 -10.657 -31.170  0.00  0.00    +0.000 C 
ATOM     17  C   UNL     1     -41.570  -9.236 -31.592  0.00  0.00    +0.000 A 
ATOM     18  C   UNL     1     -40.891  -8.674 -32.663  0.00  0.00    +0.000 A 
ATOM     19  C   UNL     1     -41.170  -7.309 -32.822  0.00  0.00    +0.000 A 
ATOM     20  C   UNL     1     -42.071  -6.817 -31.881  0.00  0.00    +0.000 A 
ATOM     21  S   UNL     1     -42.507  -8.066 -30.839  0.00  0.00    +0.000 S 
ENDBRANCH   1  20
BRANCH   7  22
ATOM     22  C   UNL     1     -46.680  -4.233 -30.455  0.00  0.00    +0.000 A 
ATOM     23  N   UNL     1     -45.952  -4.994 -29.615  0.00  0.00    +0.000 NA
ATOM     24  C   UNL     1     -46.666  -4.882 -28.474  0.00  0.00    +0.000 A 
ATOM     25  N   UNL     1     -47.755  -4.102 -28.619  0.00  0.00    +0.000 NA
ATOM     26  O   UNL     1     -47.728  -3.719 -29.860  0.00  0.00    +0.000 OA
BRANCH  24  27
ATOM     27  C   UNL     1     -46.290  -5.537 -27.212  0.00  0.00    +0.000 A 
ATOM     28  C   UNL     1     -45.248  -6.474 -27.182  0.00  0.00    +0.000 A 
ATOM     29  C   UNL     1     -44.892  -7.096 -25.981  0.00  0.00    +0.000 A 
ATOM     30  C   UNL     1     -45.576  -6.785 -24.803  0.00  0.00    +0.000 A 
ATOM     31  C   UNL     1     -46.617  -5.851 -24.826  0.00  0.00    +0.000 A 
ATOM     32  C   UNL     1     -46.972  -5.228 -26.025  0.00  0.00    +0.000 A 
ENDBRANCH  24  27
ENDBRANCH   7  22
TORSDOF 3
ENDMDL
