MODEL 1
REMARK VINA RESULT:      -6.8      0.000      0.000
REMARK  Name = ZINC000018200763
REMARK  2 active torsions:
REMARK  status: ('A' for Active; 'I' for Inactive)
REMARK    1  A    between atoms: C_14  and  O_15
REMARK    2  A    between atoms: C_17  and  C_21
REMARK                            x       y       z     vdW  Elec       q    Type
REMARK                         _______ _______ _______ _____ _____    ______ ____
ROOT
ATOM      1  C   UNL     1     -44.160 -10.123 -30.798  0.00  0.00    +0.000 C 
ATOM      2  C   UNL     1     -45.645 -10.406 -30.967  0.00  0.00    +0.000 C 
ATOM      3  C   UNL     1     -45.819 -11.883 -31.248  0.00  0.00    +0.000 C 
ATOM      4  C   UNL     1     -46.197  -9.616 -32.155  0.00  0.00    +0.000 C 
ATOM      5  C   UNL     1     -46.448  -8.169 -31.834  0.00  0.00    +0.000 C 
ATOM      6  O   UNL     1     -46.664  -7.370 -32.785  0.00  0.00    +0.000 OA
ATOM      7  C   UNL     1     -46.467  -7.681 -30.434  0.00  0.00    +0.000 C 
ATOM      8  C   UNL     1     -46.431  -8.582 -29.410  0.00  0.00    +0.000 C 
ATOM      9  C   UNL     1     -46.403 -10.061 -29.684  0.00  0.00    +0.000 C 
ATOM     10  N   UNL     1     -46.533  -8.160 -28.038  0.00  0.00    +0.000 N 
ATOM     11  C   UNL     1     -46.700  -6.776 -27.762  0.00  0.00    +0.000 A 
ATOM     12  N   UNL     1     -46.882  -6.217 -26.551  0.00  0.00    +0.000 N 
ATOM     13  N   UNL     1     -47.017  -4.908 -26.744  0.00  0.00    +0.000 NA
ATOM     14  C   UNL     1     -46.921  -4.665 -28.070  0.00  0.00    +0.000 A 
ATOM     15  C   UNL     1     -46.723  -5.845 -28.743  0.00  0.00    +0.000 A 
ATOM     16  C   UNL     1     -46.497  -6.167 -30.188  0.00  0.00    +0.000 C 
ATOM     17  H   UNL     1     -46.489  -8.816 -27.306  0.00  0.00    +0.000 HD
ATOM     18  H   UNL     1     -46.910  -6.689 -25.687  0.00  0.00    +0.000 HD
ENDROOT
BRANCH  16  19
ATOM     19  C   UNL     1     -45.238  -5.503 -30.686  0.00  0.00    +0.000 A 
ATOM     20  C   UNL     1     -43.989  -5.924 -30.207  0.00  0.00    +0.000 A 
ATOM     21  C   UNL     1     -42.824  -5.303 -30.662  0.00  0.00    +0.000 A 
ATOM     22  N   UNL     1     -42.897  -4.289 -31.565  0.00  0.00    +0.000 NA
ATOM     23  C   UNL     1     -44.088  -3.850 -32.050  0.00  0.00    +0.000 A 
ATOM     24  C   UNL     1     -44.120  -2.803 -32.975  0.00  0.00    +0.000 A 
ATOM     25  C   UNL     1     -45.342  -2.346 -33.475  0.00  0.00    +0.000 A 
ATOM     26  C   UNL     1     -46.538  -2.933 -33.051  0.00  0.00    +0.000 A 
ATOM     27  C   UNL     1     -46.515  -3.981 -32.126  0.00  0.00    +0.000 A 
ATOM     28  C   UNL     1     -45.295  -4.450 -31.617  0.00  0.00    +0.000 A 
ENDBRANCH  16  19
BRANCH  14  29
ATOM     29  O   UNL     1     -47.004  -3.401 -28.639  0.00  0.00    +0.000 OA
ATOM     30  H   UNL     1     -47.376  -3.295 -29.492  0.00  0.00    +0.000 HD
ENDBRANCH  14  29
TORSDOF 2
ENDMDL
MODEL 2
REMARK VINA RESULT:      -6.7      2.414      6.192
REMARK  Name = ZINC000018200763
REMARK  2 active torsions:
REMARK  status: ('A' for Active; 'I' for Inactive)
REMARK    1  A    between atoms: C_14  and  O_15
REMARK    2  A    between atoms: C_17  and  C_21
REMARK                            x       y       z     vdW  Elec       q    Type
REMARK                         _______ _______ _______ _____ _____    ______ ____
ROOT
ATOM      1  C   UNL     1     -42.862  -2.415 -32.532  0.00  0.00    +0.000 C 
ATOM      2  C   UNL     1     -44.232  -1.793 -32.759  0.00  0.00    +0.000 C 
ATOM      3  C   UNL     1     -44.039  -0.457 -33.443  0.00  0.00    +0.000 C 
ATOM      4  C   UNL     1     -44.929  -1.557 -31.418  0.00  0.00    +0.000 C 
ATOM      5  C   UNL     1     -45.526  -2.807 -30.837  0.00  0.00    +0.000 C 
ATOM      6  O   UNL     1     -45.904  -2.792 -29.635  0.00  0.00    +0.000 OA
ATOM      7  C   UNL     1     -45.695  -4.033 -31.654  0.00  0.00    +0.000 C 
ATOM      8  C   UNL     1     -45.468  -3.979 -32.998  0.00  0.00    +0.000 C 
ATOM      9  C   UNL     1     -45.080  -2.687 -33.664  0.00  0.00    +0.000 C 
ATOM     10  N   UNL     1     -45.702  -5.121 -33.843  0.00  0.00    +0.000 N 
ATOM     11  C   UNL     1     -46.202  -6.313 -33.254  0.00  0.00    +0.000 A 
ATOM     12  N   UNL     1     -46.542  -7.444 -33.899  0.00  0.00    +0.000 N 
ATOM     13  N   UNL     1     -46.982  -8.299 -32.980  0.00  0.00    +0.000 NA
ATOM     14  C   UNL     1     -46.916  -7.693 -31.774  0.00  0.00    +0.000 A 
ATOM     15  C   UNL     1     -46.425  -6.419 -31.923  0.00  0.00    +0.000 A 
ATOM     16  C   UNL     1     -46.093  -5.334 -30.945  0.00  0.00    +0.000 C 
ATOM     17  H   UNL     1     -45.519  -5.076 -34.809  0.00  0.00    +0.000 HD
ATOM     18  H   UNL     1     -46.476  -7.607 -34.868  0.00  0.00    +0.000 HD
ENDROOT
BRANCH  16  19
ATOM     19  C   UNL     1     -45.018  -5.794 -29.993  0.00  0.00    +0.000 A 
ATOM     20  C   UNL     1     -43.711  -5.996 -30.457  0.00  0.00    +0.000 A 
ATOM     21  C   UNL     1     -42.718  -6.430 -29.577  0.00  0.00    +0.000 A 
ATOM     22  N   UNL     1     -43.015  -6.660 -28.271  0.00  0.00    +0.000 NA
ATOM     23  C   UNL     1     -44.271  -6.479 -27.782  0.00  0.00    +0.000 A 
ATOM     24  C   UNL     1     -44.536  -6.730 -26.433  0.00  0.00    +0.000 A 
ATOM     25  C   UNL     1     -45.826  -6.549 -25.927  0.00  0.00    +0.000 A 
ATOM     26  C   UNL     1     -46.856  -6.117 -26.767  0.00  0.00    +0.000 A 
ATOM     27  C   UNL     1     -46.599  -5.864 -28.117  0.00  0.00    +0.000 A 
ATOM     28  C   UNL     1     -45.309  -6.041 -28.638  0.00  0.00    +0.000 A 
ENDBRANCH  16  19
BRANCH  14  29
ATOM     29  O   UNL     1     -47.285  -8.293 -30.579  0.00  0.00    +0.000 OA
ATOM     30  H   UNL     1     -47.940  -8.963 -30.573  0.00  0.00    +0.000 HD
ENDBRANCH  14  29
TORSDOF 2
ENDMDL
MODEL 3
REMARK VINA RESULT:      -6.6     10.716     13.930
REMARK  Name = ZINC000018200763
REMARK  2 active torsions:
REMARK  status: ('A' for Active; 'I' for Inactive)
REMARK    1  A    between atoms: C_14  and  O_15
REMARK    2  A    between atoms: C_17  and  C_21
REMARK                            x       y       z     vdW  Elec       q    Type
REMARK                         _______ _______ _______ _____ _____    ______ ____
ROOT
ATOM      1  C   UNL     1     -43.592 -14.232 -25.949  0.00  0.00    +0.000 C 
ATOM      2  C   UNL     1     -44.844 -14.953 -26.424  0.00  0.00    +0.000 C 
ATOM      3  C   UNL     1     -45.192 -14.441 -27.805  0.00  0.00    +0.000 C 
ATOM      4  C   UNL     1     -46.012 -14.652 -25.484  0.00  0.00    +0.000 C 
ATOM      5  C   UNL     1     -45.964 -15.449 -24.211  0.00  0.00    +0.000 C 
ATOM      6  O   UNL     1     -46.721 -15.114 -23.261  0.00  0.00    +0.000 OA
ATOM      7  C   UNL     1     -45.066 -16.621 -24.068  0.00  0.00    +0.000 C 
ATOM      8  C   UNL     1     -44.401 -17.093 -25.162  0.00  0.00    +0.000 C 
ATOM      9  C   UNL     1     -44.590 -16.459 -26.513  0.00  0.00    +0.000 C 
ATOM     10  N   UNL     1     -43.587 -18.278 -25.089  0.00  0.00    +0.000 N 
ATOM     11  C   UNL     1     -43.505 -18.972 -23.852  0.00  0.00    +0.000 A 
ATOM     12  N   UNL     1     -42.852 -20.127 -23.624  0.00  0.00    +0.000 N 
ATOM     13  N   UNL     1     -43.049 -20.439 -22.346  0.00  0.00    +0.000 NA
ATOM     14  C   UNL     1     -43.823 -19.479 -21.792  0.00  0.00    +0.000 A 
ATOM     15  C   UNL     1     -44.132 -18.532 -22.736  0.00  0.00    +0.000 A 
ATOM     16  C   UNL     1     -44.896 -17.245 -22.677  0.00  0.00    +0.000 C 
ATOM     17  H   UNL     1     -43.098 -18.600 -25.879  0.00  0.00    +0.000 HD
ATOM     18  H   UNL     1     -42.329 -20.642 -24.279  0.00  0.00    +0.000 HD
ENDROOT
BRANCH  16  19
ATOM     19  C   UNL     1     -44.236 -16.285 -21.719  0.00  0.00    +0.000 A 
ATOM     20  C   UNL     1     -43.000 -15.709 -22.045  0.00  0.00    +0.000 A 
ATOM     21  C   UNL     1     -42.386 -14.827 -21.154  0.00  0.00    +0.000 A 
ATOM     22  N   UNL     1     -42.981 -14.526 -19.970  0.00  0.00    +0.000 NA
ATOM     23  C   UNL     1     -44.177 -15.066 -19.616  0.00  0.00    +0.000 A 
ATOM     24  C   UNL     1     -44.754 -14.732 -18.387  0.00  0.00    +0.000 A 
ATOM     25  C   UNL     1     -45.983 -15.287 -18.016  0.00  0.00    +0.000 A 
ATOM     26  C   UNL     1     -46.638 -16.177 -18.872  0.00  0.00    +0.000 A 
ATOM     27  C   UNL     1     -46.068 -16.515 -20.102  0.00  0.00    +0.000 A 
ATOM     28  C   UNL     1     -44.836 -15.965 -20.487  0.00  0.00    +0.000 A 
ENDBRANCH  16  19
BRANCH  14  29
ATOM     29  O   UNL     1     -44.222 -19.470 -20.463  0.00  0.00    +0.000 OA
ATOM     30  H   UNL     1     -45.112 -19.658 -20.239  0.00  0.00    +0.000 HD
ENDBRANCH  14  29
TORSDOF 2
ENDMDL
