MODEL 1
REMARK VINA RESULT:      -6.7      0.000      0.000
REMARK  Name = ZINC000015841380 ZINC15841380 ChemDiv-D468-2065 MCULE-3603103277 MolPort-004-901-220 PubChem-20897503
REMARK  2 active torsions:
REMARK  status: ('A' for Active; 'I' for Inactive)
REMARK    1  A    between atoms: C_10  and  C_14
REMARK    2  A    between atoms: N_16  and  C_18
REMARK                            x       y       z     vdW  Elec       q    Type
REMARK                         _______ _______ _______ _____ _____    ______ ____
ROOT
ATOM      1  C   UNL     1     -40.783 -17.550 -28.357  0.00  0.00    +0.000 C 
ATOM      2  C   UNL     1     -41.971 -17.978 -27.564  0.00  0.00    +0.000 A 
ATOM      3  C   UNL     1     -42.554 -19.249 -27.738  0.00  0.00    +0.000 A 
ATOM      4  C   UNL     1     -42.009 -20.226 -28.723  0.00  0.00    +0.000 C 
ATOM      5  C   UNL     1     -43.667 -19.614 -26.975  0.00  0.00    +0.000 A 
ATOM      6  C   UNL     1     -44.207 -18.723 -26.039  0.00  0.00    +0.000 A 
ATOM      7  C   UNL     1     -45.321 -19.055 -25.258  0.00  0.00    +0.000 A 
ATOM      8  O   UNL     1     -45.887 -20.175 -25.373  0.00  0.00    +0.000 OA
ATOM      9  C   UNL     1     -45.809 -18.128 -24.338  0.00  0.00    +0.000 A 
ATOM     10  C   UNL     1     -45.173 -16.885 -24.215  0.00  0.00    +0.000 A 
ATOM     11  O   UNL     1     -44.123 -16.595 -24.981  0.00  0.00    +0.000 OA
ATOM     12  C   UNL     1     -43.622 -17.451 -25.867  0.00  0.00    +0.000 A 
ATOM     13  C   UNL     1     -42.510 -17.087 -26.630  0.00  0.00    +0.000 A 
ENDROOT
BRANCH  10  14
ATOM     14  C   UNL     1     -45.676 -15.889 -23.247  0.00  0.00    +0.000 C 
ATOM     15  O   UNL     1     -46.475 -14.996 -23.635  0.00  0.00    +0.000 OA
ATOM     16  N   UNL     1     -45.229 -15.867 -21.884  0.00  0.00    +0.000 N 
ATOM     17  H   UNL     1     -45.151 -14.984 -21.455  0.00  0.00    +0.000 HD
BRANCH  16  18
ATOM     18  C   UNL     1     -44.887 -17.008 -21.090  0.00  0.00    +0.000 A 
ATOM     19  C   UNL     1     -43.550 -17.426 -20.950  0.00  0.00    +0.000 A 
ATOM     20  C   UNL     1     -43.261 -18.556 -20.187  0.00  0.00    +0.000 A 
ATOM     21  N   UNL     1     -41.998 -19.007 -19.996  0.00  0.00    +0.000 NA
ATOM     22  S   UNL     1     -42.308 -20.324 -19.041  0.00  0.00    +0.000 S 
ATOM     23  N   UNL     1     -43.950 -20.377 -18.841  0.00  0.00    +0.000 NA
ATOM     24  C   UNL     1     -44.309 -19.290 -19.568  0.00  0.00    +0.000 A 
ATOM     25  C   UNL     1     -45.635 -18.890 -19.723  0.00  0.00    +0.000 A 
ATOM     26  C   UNL     1     -45.917 -17.750 -20.490  0.00  0.00    +0.000 A 
ENDBRANCH  16  18
ENDBRANCH  10  14
TORSDOF 2
ENDMDL
MODEL 2
REMARK VINA RESULT:      -6.6     14.855     16.817
REMARK  Name = ZINC000015841380 ZINC15841380 ChemDiv-D468-2065 MCULE-3603103277 MolPort-004-901-220 PubChem-20897503
REMARK  2 active torsions:
REMARK  status: ('A' for Active; 'I' for Inactive)
REMARK    1  A    between atoms: C_10  and  C_14
REMARK    2  A    between atoms: N_16  and  C_18
REMARK                            x       y       z     vdW  Elec       q    Type
REMARK                         _______ _______ _______ _____ _____    ______ ____
ROOT
ATOM      1  C   UNL     1     -39.525  -3.687 -33.563  0.00  0.00    +0.000 C 
ATOM      2  C   UNL     1     -40.797  -2.992 -33.212  0.00  0.00    +0.000 A 
ATOM      3  C   UNL     1     -40.804  -1.668 -32.731  0.00  0.00    +0.000 A 
ATOM      4  C   UNL     1     -39.540  -0.899 -32.550  0.00  0.00    +0.000 C 
ATOM      5  C   UNL     1     -42.017  -1.050 -32.413  0.00  0.00    +0.000 A 
ATOM      6  C   UNL     1     -43.226  -1.740 -32.571  0.00  0.00    +0.000 A 
ATOM      7  C   UNL     1     -44.459  -1.153 -32.262  0.00  0.00    +0.000 A 
ATOM      8  O   UNL     1     -44.528   0.027 -31.824  0.00  0.00    +0.000 OA
ATOM      9  C   UNL     1     -45.629  -1.888 -32.446  0.00  0.00    +0.000 A 
ATOM     10  C   UNL     1     -45.545  -3.199 -32.936  0.00  0.00    +0.000 A 
ATOM     11  O   UNL     1     -44.356  -3.733 -33.208  0.00  0.00    +0.000 OA
ATOM     12  C   UNL     1     -43.216  -3.066 -33.052  0.00  0.00    +0.000 A 
ATOM     13  C   UNL     1     -42.003  -3.683 -33.369  0.00  0.00    +0.000 A 
ENDROOT
BRANCH  10  14
ATOM     14  C   UNL     1     -46.773  -3.995 -33.136  0.00  0.00    +0.000 C 
ATOM     15  O   UNL     1     -47.156  -4.260 -34.306  0.00  0.00    +0.000 OA
ATOM     16  N   UNL     1     -47.583  -4.424 -32.033  0.00  0.00    +0.000 N 
ATOM     17  H   UNL     1     -48.555  -4.465 -32.183  0.00  0.00    +0.000 HD
BRANCH  16  18
ATOM     18  C   UNL     1     -47.109  -4.801 -30.735  0.00  0.00    +0.000 A 
ATOM     19  C   UNL     1     -46.054  -5.720 -30.580  0.00  0.00    +0.000 A 
ATOM     20  C   UNL     1     -45.639  -6.077 -29.299  0.00  0.00    +0.000 A 
ATOM     21  N   UNL     1     -44.620  -6.943 -29.074  0.00  0.00    +0.000 NA
ATOM     22  S   UNL     1     -44.615  -6.951 -27.418  0.00  0.00    +0.000 S 
ATOM     23  N   UNL     1     -45.825  -5.926 -26.944  0.00  0.00    +0.000 NA
ATOM     24  C   UNL     1     -46.286  -5.531 -28.157  0.00  0.00    +0.000 A 
ATOM     25  C   UNL     1     -47.344  -4.638 -28.308  0.00  0.00    +0.000 A 
ATOM     26  C   UNL     1     -47.755  -4.280 -29.601  0.00  0.00    +0.000 A 
ENDBRANCH  16  18
ENDBRANCH  10  14
TORSDOF 2
ENDMDL
MODEL 3
REMARK VINA RESULT:      -6.2      3.972      7.506
REMARK  Name = ZINC000015841380 ZINC15841380 ChemDiv-D468-2065 MCULE-3603103277 MolPort-004-901-220 PubChem-20897503
REMARK  2 active torsions:
REMARK  status: ('A' for Active; 'I' for Inactive)
REMARK    1  A    between atoms: C_10  and  C_14
REMARK    2  A    between atoms: N_16  and  C_18
REMARK                            x       y       z     vdW  Elec       q    Type
REMARK                         _______ _______ _______ _____ _____    ______ ____
ROOT
ATOM      1  C   UNL     1     -46.789 -13.178 -20.035  0.00  0.00    +0.000 C 
ATOM      2  C   UNL     1     -46.344 -14.567 -20.345  0.00  0.00    +0.000 A 
ATOM      3  C   UNL     1     -46.032 -15.485 -19.323  0.00  0.00    +0.000 A 
ATOM      4  C   UNL     1     -46.131 -15.112 -17.883  0.00  0.00    +0.000 C 
ATOM      5  C   UNL     1     -45.619 -16.780 -19.654  0.00  0.00    +0.000 A 
ATOM      6  C   UNL     1     -45.514 -17.168 -20.995  0.00  0.00    +0.000 A 
ATOM      7  C   UNL     1     -45.103 -18.456 -21.363  0.00  0.00    +0.000 A 
ATOM      8  O   UNL     1     -44.807 -19.319 -20.493  0.00  0.00    +0.000 OA
ATOM      9  C   UNL     1     -45.024 -18.786 -22.715  0.00  0.00    +0.000 A 
ATOM     10  C   UNL     1     -45.358 -17.822 -23.676  0.00  0.00    +0.000 A 
ATOM     11  O   UNL     1     -45.733 -16.603 -23.294  0.00  0.00    +0.000 OA
ATOM     12  C   UNL     1     -45.827 -16.247 -22.017  0.00  0.00    +0.000 A 
ATOM     13  C   UNL     1     -46.239 -14.954 -21.685  0.00  0.00    +0.000 A 
ENDROOT
BRANCH  10  14
ATOM     14  C   UNL     1     -45.279 -18.151 -25.114  0.00  0.00    +0.000 C 
ATOM     15  O   UNL     1     -45.789 -19.225 -25.533  0.00  0.00    +0.000 OA
ATOM     16  N   UNL     1     -44.579 -17.313 -26.044  0.00  0.00    +0.000 N 
ATOM     17  H   UNL     1     -44.118 -17.762 -26.789  0.00  0.00    +0.000 HD
BRANCH  16  18
ATOM     18  C   UNL     1     -44.489 -15.885 -25.989  0.00  0.00    +0.000 A 
ATOM     19  C   UNL     1     -45.610 -15.072 -26.242  0.00  0.00    +0.000 A 
ATOM     20  C   UNL     1     -45.475 -13.686 -26.202  0.00  0.00    +0.000 A 
ATOM     21  N   UNL     1     -46.513 -12.842 -26.419  0.00  0.00    +0.000 NA
ATOM     22  S   UNL     1     -45.740 -11.389 -26.240  0.00  0.00    +0.000 S 
ATOM     23  N   UNL     1     -44.159 -11.741 -25.902  0.00  0.00    +0.000 NA
ATOM     24  C   UNL     1     -44.212 -13.096 -25.925  0.00  0.00    +0.000 A 
ATOM     25  C   UNL     1     -43.096 -13.899 -25.695  0.00  0.00    +0.000 A 
ATOM     26  C   UNL     1     -43.240 -15.294 -25.734  0.00  0.00    +0.000 A 
ENDBRANCH  16  18
ENDBRANCH  10  14
TORSDOF 2
ENDMDL
