MODEL 1
REMARK VINA RESULT:      -7.0      0.000      0.000
REMARK  Name = ZINC000031809732
REMARK  3 active torsions:
REMARK  status: ('A' for Active; 'I' for Inactive)
REMARK    1  A    between atoms: C_1  and  C_26
REMARK    2  A    between atoms: C_24  and  O_33
REMARK    3  A    between atoms: C_29  and  O_30
REMARK                            x       y       z     vdW  Elec       q    Type
REMARK                         _______ _______ _______ _____ _____    ______ ____
ROOT
ATOM      1  C   UNL     1     -45.631 -15.946 -19.936  0.00  0.00    +0.000 C 
ATOM      2  S   UNL     1     -46.995 -15.111 -19.076  0.00  0.00    +0.000 S 
ATOM      3  C   UNL     1     -46.029 -13.591 -19.066  0.00  0.00    +0.000 C 
ATOM      4  C   UNL     1     -46.430 -12.760 -20.225  0.00  0.00    +0.000 C 
ATOM      5  O   UNL     1     -46.889 -11.608 -20.009  0.00  0.00    +0.000 OA
ATOM      6  N   UNL     1     -46.307 -13.213 -21.577  0.00  0.00    +0.000 N 
ATOM      7  C   UNL     1     -45.862 -14.475 -22.105  0.00  0.00    +0.000 A 
ATOM      8  C   UNL     1     -45.638 -15.682 -21.432  0.00  0.00    +0.000 A 
ATOM      9  C   UNL     1     -45.288 -16.560 -22.463  0.00  0.00    +0.000 A 
ATOM     10  C   UNL     1     -44.847 -17.978 -22.345  0.00  0.00    +0.000 C 
ATOM     11  N   UNL     1     -45.345 -15.932 -23.651  0.00  0.00    +0.000 NA
ATOM     12  N   UNL     1     -45.685 -14.676 -23.429  0.00  0.00    +0.000 N 
ATOM     13  H   UNL     1     -46.570 -12.552 -22.258  0.00  0.00    +0.000 HD
ATOM     14  C   UNL     1     -45.856 -13.725 -24.491  0.00  0.00    +0.000 A 
ATOM     15  N   UNL     1     -46.357 -14.129 -25.697  0.00  0.00    +0.000 NA
ATOM     16  C   UNL     1     -46.507 -13.253 -26.741  0.00  0.00    +0.000 A 
ATOM     17  N   UNL     1     -46.139 -11.944 -26.606  0.00  0.00    +0.000 NA
ATOM     18  C   UNL     1     -45.629 -11.544 -25.416  0.00  0.00    +0.000 A 
ATOM     19  N   UNL     1     -45.164 -10.326 -25.116  0.00  0.00    +0.000 N 
ATOM     20  C   UNL     1     -44.719 -10.488 -23.840  0.00  0.00    +0.000 A 
ATOM     21  N   UNL     1     -44.886 -11.749 -23.354  0.00  0.00    +0.000 NA
ATOM     22  C   UNL     1     -45.475 -12.388 -24.374  0.00  0.00    +0.000 A 
ATOM     23  H   UNL     1     -45.149  -9.517 -25.676  0.00  0.00    +0.000 HD
ENDROOT
BRANCH   1  26
ATOM     24  C   UNL     1     -44.445 -19.345 -18.667  0.00  0.00    +0.000 A 
ATOM     25  C   UNL     1     -44.449 -17.989 -19.029  0.00  0.00    +0.000 A 
ATOM     26  C   UNL     1     -45.610 -17.392 -19.544  0.00  0.00    +0.000 A 
ATOM     27  C   UNL     1     -46.767 -18.159 -19.702  0.00  0.00    +0.000 A 
ATOM     28  C   UNL     1     -46.770 -19.509 -19.345  0.00  0.00    +0.000 A 
ATOM     29  C   UNL     1     -45.615 -20.102 -18.827  0.00  0.00    +0.000 A 
BRANCH  29  30
ATOM     30  O   UNL     1     -45.634 -21.446 -18.476  0.00  0.00    +0.000 OA
ATOM     31  H   UNL     1     -44.886 -21.985 -18.644  0.00  0.00    +0.000 HD
ENDBRANCH  29  30
BRANCH  24  33
ATOM     32  C   UNL     1     -42.250 -20.447 -18.972  0.00  0.00    +0.000 C 
ATOM     33  O   UNL     1     -43.299 -19.957 -18.148  0.00  0.00    +0.000 OA
ENDBRANCH  24  33
ENDBRANCH   1  26
TORSDOF 3
ENDMDL
MODEL 2
REMARK VINA RESULT:      -6.7      2.644      3.921
REMARK  Name = ZINC000031809732
REMARK  3 active torsions:
REMARK  status: ('A' for Active; 'I' for Inactive)
REMARK    1  A    between atoms: C_1  and  C_26
REMARK    2  A    between atoms: C_24  and  O_33
REMARK    3  A    between atoms: C_29  and  O_30
REMARK                            x       y       z     vdW  Elec       q    Type
REMARK                         _______ _______ _______ _____ _____    ______ ____
ROOT
ATOM      1  C   UNL     1     -44.921 -17.169 -23.400  0.00  0.00    +0.000 C 
ATOM      2  S   UNL     1     -43.443 -17.507 -24.397  0.00  0.00    +0.000 S 
ATOM      3  C   UNL     1     -44.469 -17.510 -25.877  0.00  0.00    +0.000 C 
ATOM      4  C   UNL     1     -44.415 -16.166 -26.499  0.00  0.00    +0.000 C 
ATOM      5  O   UNL     1     -43.990 -16.067 -27.679  0.00  0.00    +0.000 OA
ATOM      6  N   UNL     1     -44.838 -14.983 -25.815  0.00  0.00    +0.000 N 
ATOM      7  C   UNL     1     -45.321 -14.800 -24.472  0.00  0.00    +0.000 A 
ATOM      8  C   UNL     1     -45.298 -15.698 -23.397  0.00  0.00    +0.000 A 
ATOM      9  C   UNL     1     -45.835 -14.947 -22.346  0.00  0.00    +0.000 A 
ATOM     10  C   UNL     1     -46.145 -15.405 -20.963  0.00  0.00    +0.000 C 
ATOM     11  N   UNL     1     -46.111 -13.697 -22.757  0.00  0.00    +0.000 NA
ATOM     12  N   UNL     1     -45.805 -13.615 -24.039  0.00  0.00    +0.000 N 
ATOM     13  H   UNL     1     -44.792 -14.158 -26.351  0.00  0.00    +0.000 HD
ATOM     14  C   UNL     1     -45.958 -12.403 -24.792  0.00  0.00    +0.000 A 
ATOM     15  N   UNL     1     -45.744 -11.194 -24.192  0.00  0.00    +0.000 NA
ATOM     16  C   UNL     1     -45.909 -10.016 -24.874  0.00  0.00    +0.000 A 
ATOM     17  N   UNL     1     -46.313 -10.021 -26.180  0.00  0.00    +0.000 NA
ATOM     18  C   UNL     1     -46.539 -11.218 -26.772  0.00  0.00    +0.000 A 
ATOM     19  N   UNL     1     -46.991 -11.421 -28.016  0.00  0.00    +0.000 N 
ATOM     20  C   UNL     1     -47.098 -12.776 -28.071  0.00  0.00    +0.000 A 
ATOM     21  N   UNL     1     -46.739 -13.406 -26.918  0.00  0.00    +0.000 NA
ATOM     22  C   UNL     1     -46.380 -12.390 -26.121  0.00  0.00    +0.000 A 
ATOM     23  H   UNL     1     -47.192 -10.757 -28.713  0.00  0.00    +0.000 HD
ENDROOT
BRANCH   1  26
ATOM     24  C   UNL     1     -43.413 -18.259 -20.066  0.00  0.00    +0.000 A 
ATOM     25  C   UNL     1     -43.551 -17.676 -21.336  0.00  0.00    +0.000 A 
ATOM     26  C   UNL     1     -44.757 -17.787 -22.044  0.00  0.00    +0.000 A 
ATOM     27  C   UNL     1     -45.825 -18.490 -21.481  0.00  0.00    +0.000 A 
ATOM     28  C   UNL     1     -45.694 -19.075 -20.218  0.00  0.00    +0.000 A 
ATOM     29  C   UNL     1     -44.494 -18.959 -19.511  0.00  0.00    +0.000 A 
BRANCH  29  30
ATOM     30  O   UNL     1     -44.380 -19.545 -18.257  0.00  0.00    +0.000 OA
ATOM     31  H   UNL     1     -43.815 -20.283 -18.134  0.00  0.00    +0.000 HD
ENDBRANCH  29  30
BRANCH  24  33
ATOM     32  C   UNL     1     -41.131 -19.050 -19.526  0.00  0.00    +0.000 C 
ATOM     33  O   UNL     1     -42.220 -18.156 -19.343  0.00  0.00    +0.000 OA
ENDBRANCH  24  33
ENDBRANCH   1  26
TORSDOF 3
ENDMDL
MODEL 3
REMARK VINA RESULT:      -6.7      9.688     13.106
REMARK  Name = ZINC000031809732
REMARK  3 active torsions:
REMARK  status: ('A' for Active; 'I' for Inactive)
REMARK    1  A    between atoms: C_1  and  C_26
REMARK    2  A    between atoms: C_24  and  O_33
REMARK    3  A    between atoms: C_29  and  O_30
REMARK                            x       y       z     vdW  Elec       q    Type
REMARK                         _______ _______ _______ _____ _____    ______ ____
ROOT
ATOM      1  C   UNL     1     -46.353  -6.215 -29.087  0.00  0.00    +0.000 C 
ATOM      2  S   UNL     1     -47.488  -6.615 -30.446  0.00  0.00    +0.000 S 
ATOM      3  C   UNL     1     -47.728  -4.853 -30.733  0.00  0.00    +0.000 C 
ATOM      4  C   UNL     1     -46.810  -4.414 -31.810  0.00  0.00    +0.000 C 
ATOM      5  O   UNL     1     -47.303  -3.908 -32.852  0.00  0.00    +0.000 OA
ATOM      6  N   UNL     1     -45.388  -4.534 -31.706  0.00  0.00    +0.000 N 
ATOM      7  C   UNL     1     -44.569  -5.100 -30.667  0.00  0.00    +0.000 A 
ATOM      8  C   UNL     1     -44.952  -5.889 -29.576  0.00  0.00    +0.000 A 
ATOM      9  C   UNL     1     -43.733  -6.195 -28.962  0.00  0.00    +0.000 A 
ATOM     10  C   UNL     1     -43.511  -6.937 -27.690  0.00  0.00    +0.000 C 
ATOM     11  N   UNL     1     -42.712  -5.666 -29.661  0.00  0.00    +0.000 NA
ATOM     12  N   UNL     1     -43.222  -5.003 -30.683  0.00  0.00    +0.000 N 
ATOM     13  H   UNL     1     -44.887  -4.168 -32.471  0.00  0.00    +0.000 HD
ATOM     14  C   UNL     1     -42.403  -4.330 -31.650  0.00  0.00    +0.000 A 
ATOM     15  N   UNL     1     -41.190  -4.853 -32.002  0.00  0.00    +0.000 NA
ATOM     16  C   UNL     1     -40.370  -4.220 -32.900  0.00  0.00    +0.000 A 
ATOM     17  N   UNL     1     -40.742  -3.030 -33.460  0.00  0.00    +0.000 NA
ATOM     18  C   UNL     1     -41.937  -2.503 -33.102  0.00  0.00    +0.000 A 
ATOM     19  N   UNL     1     -42.442  -1.328 -33.497  0.00  0.00    +0.000 N 
ATOM     20  C   UNL     1     -43.610  -1.262 -32.802  0.00  0.00    +0.000 A 
ATOM     21  N   UNL     1     -43.835  -2.339 -31.998  0.00  0.00    +0.000 NA
ATOM     22  C   UNL     1     -42.761  -3.109 -32.222  0.00  0.00    +0.000 A 
ATOM     23  H   UNL     1     -42.064  -0.678 -34.132  0.00  0.00    +0.000 HD
ENDROOT
BRANCH   1  26
ATOM     24  C   UNL     1     -46.469  -9.642 -27.407  0.00  0.00    +0.000 A 
ATOM     25  C   UNL     1     -46.397  -8.648 -28.396  0.00  0.00    +0.000 A 
ATOM     26  C   UNL     1     -46.430  -7.290 -28.045  0.00  0.00    +0.000 A 
ATOM     27  C   UNL     1     -46.542  -6.928 -26.700  0.00  0.00    +0.000 A 
ATOM     28  C   UNL     1     -46.616  -7.912 -25.711  0.00  0.00    +0.000 A 
ATOM     29  C   UNL     1     -46.578  -9.265 -26.061  0.00  0.00    +0.000 A 
BRANCH  29  30
ATOM     30  O   UNL     1     -46.652 -10.231 -25.066  0.00  0.00    +0.000 OA
ATOM     31  H   UNL     1     -46.653  -9.976 -24.164  0.00  0.00    +0.000 HD
ENDBRANCH  29  30
BRANCH  24  33
ATOM     32  C   UNL     1     -46.650 -11.476 -29.059  0.00  0.00    +0.000 C 
ATOM     33  O   UNL     1     -46.434 -11.001 -27.738  0.00  0.00    +0.000 OA
ENDBRANCH  24  33
ENDBRANCH   1  26
TORSDOF 3
ENDMDL
