MODEL 1
REMARK VINA RESULT:      -6.8      0.000      0.000
REMARK  Name = ZINC000096011142 ZINC96011142 CSC027537832 MCULE-9100666836 MolPort-028-801-490 PubChem-75455099
REMARK  4 active torsions:
REMARK  status: ('A' for Active; 'I' for Inactive)
REMARK    1  A    between atoms: C_1  and  C_28
REMARK    2  A    between atoms: C_10  and  C_15
REMARK    3  A    between atoms: N_17  and  C_20
REMARK    4  A    between atoms: C_28  and  O_31
REMARK                            x       y       z     vdW  Elec       q    Type
REMARK                         _______ _______ _______ _____ _____    ______ ____
ROOT
ATOM      1  C   UNL     1     -45.876  -9.590 -28.173  0.00  0.00    +0.000 A 
ATOM      2  C   UNL     1     -45.998  -9.559 -26.778  0.00  0.00    +0.000 A 
ATOM      3  C   UNL     1     -46.362  -8.379 -26.127  0.00  0.00    +0.000 A 
ATOM      4  C   UNL     1     -46.604  -7.218 -26.865  0.00  0.00    +0.000 A 
ATOM      5  N   UNL     1     -46.984  -6.018 -26.193  0.00  0.00    +0.000 N 
ATOM      6  C   UNL     1     -47.119  -4.796 -26.919  0.00  0.00    +0.000 C 
ATOM      7  O   UNL     1     -47.542  -3.764 -26.335  0.00  0.00    +0.000 OA
ATOM      8  C   UNL     1     -46.688  -4.719 -28.351  0.00  0.00    +0.000 C 
ATOM      9  N   UNL     1     -46.764  -6.025 -29.017  0.00  0.00    +0.000 N 
ATOM     10  C   UNL     1     -47.085  -6.076 -30.422  0.00  0.00    +0.000 C 
ATOM     11  O   UNL     1     -47.756  -7.044 -30.873  0.00  0.00    +0.000 OA
ATOM     12  C   UNL     1     -46.498  -7.232 -28.267  0.00  0.00    +0.000 A 
ATOM     13  C   UNL     1     -46.128  -8.425 -28.910  0.00  0.00    +0.000 A 
ATOM     14  H   UNL     1     -47.154  -6.033 -25.223  0.00  0.00    +0.000 HD
ENDROOT
BRANCH  10  15
ATOM     15  C   UNL     1     -46.653  -5.016 -31.355  0.00  0.00    +0.000 A 
ATOM     16  N   UNL     1     -45.473  -4.379 -31.284  0.00  0.00    +0.000 NA
ATOM     17  N   UNL     1     -45.425  -3.523 -32.288  0.00  0.00    +0.000 N 
ATOM     18  C   UNL     1     -46.560  -3.608 -33.014  0.00  0.00    +0.000 A 
ATOM     19  C   UNL     1     -47.380  -4.567 -32.443  0.00  0.00    +0.000 A 
BRANCH  17  20
ATOM     20  C   UNL     1     -44.319  -2.637 -32.572  0.00  0.00    +0.000 A 
ATOM     21  C   UNL     1     -44.398  -1.297 -32.151  0.00  0.00    +0.000 A 
ATOM     22  C   UNL     1     -43.359  -0.400 -32.402  0.00  0.00    +0.000 A 
ATOM     23  C   UNL     1     -42.219  -0.828 -33.080  0.00  0.00    +0.000 A 
ATOM     24  F   UNL     1     -41.209   0.041 -33.325  0.00  0.00    +0.000 F 
ATOM     25  C   UNL     1     -42.118  -2.153 -33.506  0.00  0.00    +0.000 A 
ATOM     26  C   UNL     1     -43.153  -3.062 -33.261  0.00  0.00    +0.000 A 
ATOM     27  C   UNL     1     -42.958  -4.459 -33.743  0.00  0.00    +0.000 C 
ENDBRANCH  17  20
ENDBRANCH  10  15
BRANCH   1  28
ATOM     28  C   UNL     1     -45.491 -10.837 -28.855  0.00  0.00    +0.000 C 
ATOM     29  O   UNL     1     -44.340 -11.323 -28.679  0.00  0.00    +0.000 OA
BRANCH  28  31
ATOM     30  C   UNL     1     -46.113 -12.720 -30.315  0.00  0.00    +0.000 C 
ATOM     31  O   UNL     1     -46.405 -11.475 -29.696  0.00  0.00    +0.000 OA
ENDBRANCH  28  31
ENDBRANCH   1  28
TORSDOF 4
ENDMDL
MODEL 2
REMARK VINA RESULT:      -6.8      2.748      4.763
REMARK  Name = ZINC000096011142 ZINC96011142 CSC027537832 MCULE-9100666836 MolPort-028-801-490 PubChem-75455099
REMARK  4 active torsions:
REMARK  status: ('A' for Active; 'I' for Inactive)
REMARK    1  A    between atoms: C_1  and  C_28
REMARK    2  A    between atoms: C_10  and  C_15
REMARK    3  A    between atoms: N_17  and  C_20
REMARK    4  A    between atoms: C_28  and  O_31
REMARK                            x       y       z     vdW  Elec       q    Type
REMARK                         _______ _______ _______ _____ _____    ______ ____
ROOT
ATOM      1  C   UNL     1     -45.814 -12.340 -27.426  0.00  0.00    +0.000 A 
ATOM      2  C   UNL     1     -45.809 -13.570 -28.095  0.00  0.00    +0.000 A 
ATOM      3  C   UNL     1     -45.757 -13.615 -29.490  0.00  0.00    +0.000 A 
ATOM      4  C   UNL     1     -45.712 -12.430 -30.228  0.00  0.00    +0.000 A 
ATOM      5  N   UNL     1     -45.651 -12.483 -31.652  0.00  0.00    +0.000 N 
ATOM      6  C   UNL     1     -45.724 -11.285 -32.424  0.00  0.00    +0.000 C 
ATOM      7  O   UNL     1     -45.578 -11.334 -33.673  0.00  0.00    +0.000 OA
ATOM      8  C   UNL     1     -46.050  -9.982 -31.762  0.00  0.00    +0.000 C 
ATOM      9  N   UNL     1     -45.646  -9.968 -30.351  0.00  0.00    +0.000 N 
ATOM     10  C   UNL     1     -45.214  -8.726 -29.759  0.00  0.00    +0.000 C 
ATOM     11  O   UNL     1     -44.319  -8.737 -28.871  0.00  0.00    +0.000 OA
ATOM     12  C   UNL     1     -45.705 -11.185 -29.573  0.00  0.00    +0.000 A 
ATOM     13  C   UNL     1     -45.761 -11.153 -28.170  0.00  0.00    +0.000 A 
ATOM     14  H   UNL     1     -45.557 -13.353 -32.105  0.00  0.00    +0.000 HD
ENDROOT
BRANCH  10  15
ATOM     15  C   UNL     1     -45.789  -7.430 -30.171  0.00  0.00    +0.000 A 
ATOM     16  N   UNL     1     -45.112  -6.475 -30.828  0.00  0.00    +0.000 NA
ATOM     17  N   UNL     1     -45.948  -5.476 -31.048  0.00  0.00    +0.000 N 
ATOM     18  C   UNL     1     -47.164  -5.783 -30.547  0.00  0.00    +0.000 A 
ATOM     19  C   UNL     1     -47.102  -7.041 -29.973  0.00  0.00    +0.000 A 
BRANCH  17  20
ATOM     20  C   UNL     1     -45.614  -4.248 -31.732  0.00  0.00    +0.000 A 
ATOM     21  C   UNL     1     -44.876  -3.268 -31.043  0.00  0.00    +0.000 A 
ATOM     22  C   UNL     1     -44.529  -2.064 -31.656  0.00  0.00    +0.000 A 
ATOM     23  C   UNL     1     -44.915  -1.816 -32.972  0.00  0.00    +0.000 A 
ATOM     24  F   UNL     1     -44.580  -0.647 -33.569  0.00  0.00    +0.000 F 
ATOM     25  C   UNL     1     -45.646  -2.774 -33.676  0.00  0.00    +0.000 A 
ATOM     26  C   UNL     1     -46.001  -3.986 -33.072  0.00  0.00    +0.000 A 
ATOM     27  C   UNL     1     -46.775  -4.955 -33.899  0.00  0.00    +0.000 C 
ENDBRANCH  17  20
ENDBRANCH  10  15
BRANCH   1  28
ATOM     28  C   UNL     1     -45.870 -12.298 -25.955  0.00  0.00    +0.000 C 
ATOM     29  O   UNL     1     -46.518 -13.176 -25.323  0.00  0.00    +0.000 OA
BRANCH  28  31
ATOM     30  C   UNL     1     -43.791 -11.282 -25.110  0.00  0.00    +0.000 C 
ATOM     31  O   UNL     1     -45.203 -11.281 -25.267  0.00  0.00    +0.000 OA
ENDBRANCH  28  31
ENDBRANCH   1  28
TORSDOF 4
ENDMDL
MODEL 3
REMARK VINA RESULT:      -6.7      5.587      7.762
REMARK  Name = ZINC000096011142 ZINC96011142 CSC027537832 MCULE-9100666836 MolPort-028-801-490 PubChem-75455099
REMARK  4 active torsions:
REMARK  status: ('A' for Active; 'I' for Inactive)
REMARK    1  A    between atoms: C_1  and  C_28
REMARK    2  A    between atoms: C_10  and  C_15
REMARK    3  A    between atoms: N_17  and  C_20
REMARK    4  A    between atoms: C_28  and  O_31
REMARK                            x       y       z     vdW  Elec       q    Type
REMARK                         _______ _______ _______ _____ _____    ______ ____
ROOT
ATOM      1  C   UNL     1     -46.878 -11.466 -37.643  0.00  0.00    +0.000 A 
ATOM      2  C   UNL     1     -47.343 -11.372 -38.960  0.00  0.00    +0.000 A 
ATOM      3  C   UNL     1     -47.525 -10.123 -39.558  0.00  0.00    +0.000 A 
ATOM      4  C   UNL     1     -47.245  -8.957 -38.842  0.00  0.00    +0.000 A 
ATOM      5  N   UNL     1     -47.426  -7.685 -39.461  0.00  0.00    +0.000 N 
ATOM      6  C   UNL     1     -47.259  -6.484 -38.707  0.00  0.00    +0.000 C 
ATOM      7  O   UNL     1     -47.331  -5.367 -39.284  0.00  0.00    +0.000 OA
ATOM      8  C   UNL     1     -47.076  -6.546 -37.223  0.00  0.00    +0.000 C 
ATOM      9  N   UNL     1     -46.470  -7.815 -36.798  0.00  0.00    +0.000 N 
ATOM     10  C   UNL     1     -45.603  -7.825 -35.647  0.00  0.00    +0.000 C 
ATOM     11  O   UNL     1     -44.624  -8.620 -35.611  0.00  0.00    +0.000 OA
ATOM     12  C   UNL     1     -46.767  -9.031 -37.521  0.00  0.00    +0.000 A 
ATOM     13  C   UNL     1     -46.591 -10.293 -36.931  0.00  0.00    +0.000 A 
ATOM     14  H   UNL     1     -47.666  -7.634 -40.415  0.00  0.00    +0.000 HD
ENDROOT
BRANCH  10  15
ATOM     15  C   UNL     1     -45.824  -6.920 -34.501  0.00  0.00    +0.000 A 
ATOM     16  N   UNL     1     -45.342  -5.669 -34.420  0.00  0.00    +0.000 NA
ATOM     17  N   UNL     1     -45.759  -5.158 -33.275  0.00  0.00    +0.000 N 
ATOM     18  C   UNL     1     -46.514  -6.066 -32.620  0.00  0.00    +0.000 A 
ATOM     19  C   UNL     1     -46.582  -7.220 -33.383  0.00  0.00    +0.000 A 
BRANCH  17  20
ATOM     20  C   UNL     1     -45.461  -3.826 -32.802  0.00  0.00    +0.000 A 
ATOM     21  C   UNL     1     -45.089  -2.842 -33.737  0.00  0.00    +0.000 A 
ATOM     22  C   UNL     1     -44.789  -1.541 -33.332  0.00  0.00    +0.000 A 
ATOM     23  C   UNL     1     -44.854  -1.199 -31.983  0.00  0.00    +0.000 A 
ATOM     24  F   UNL     1     -44.562   0.063 -31.588  0.00  0.00    +0.000 F 
ATOM     25  C   UNL     1     -45.221  -2.158 -31.038  0.00  0.00    +0.000 A 
ATOM     26  C   UNL     1     -45.525  -3.466 -31.431  0.00  0.00    +0.000 A 
ATOM     27  C   UNL     1     -45.916  -4.424 -30.357  0.00  0.00    +0.000 C 
ENDBRANCH  17  20
ENDBRANCH  10  15
BRANCH   1  28
ATOM     28  C   UNL     1     -46.689 -12.785 -37.017  0.00  0.00    +0.000 C 
ATOM     29  O   UNL     1     -47.684 -13.531 -36.803  0.00  0.00    +0.000 OA
BRANCH  28  31
ATOM     30  C   UNL     1     -45.175 -14.438 -35.997  0.00  0.00    +0.000 C 
ATOM     31  O   UNL     1     -45.404 -13.204 -36.661  0.00  0.00    +0.000 OA
ENDBRANCH  28  31
ENDBRANCH   1  28
TORSDOF 4
ENDMDL
