MODEL 1
REMARK VINA RESULT:      -7.0      0.000      0.000
REMARK  Name = ZINC000009034026 ZINC09034026 PubChem-40911175
REMARK  5 active torsions:
REMARK  status: ('A' for Active; 'I' for Inactive)
REMARK    1  A    between atoms: N_1  and  C_16
REMARK    2  A    between atoms: C_2  and  C_21
REMARK    3  A    between atoms: C_7  and  O_18
REMARK    4  A    between atoms: C_12  and  O_19
REMARK    5  A    between atoms: N_23  and  C_25
REMARK                            x       y       z     vdW  Elec       q    Type
REMARK                         _______ _______ _______ _____ _____    ______ ____
ROOT
ATOM      1  N   UNL     1     -42.763 -18.907 -27.005  0.00  0.00    +0.000 N 
ATOM      2  C   UNL     1     -41.994 -17.789 -26.472  0.00  0.00    +0.000 C 
ATOM      3  C   UNL     1     -40.738 -17.673 -27.352  0.00  0.00    +0.000 C 
ATOM      4  C   UNL     1     -40.784 -18.805 -28.384  0.00  0.00    +0.000 C 
ATOM      5  C   UNL     1     -42.053 -19.493 -28.077  0.00  0.00    +0.000 C 
ATOM      6  O   UNL     1     -42.460 -20.511 -28.696  0.00  0.00    +0.000 OA
ENDROOT
BRANCH   1  16
ATOM      7  C   UNL     1     -43.576 -19.652 -22.069  0.00  0.00    +0.000 A 
ATOM      8  C   UNL     1     -42.641 -20.408 -22.816  0.00  0.00    +0.000 A 
ATOM      9  C   UNL     1     -42.672 -20.427 -24.218  0.00  0.00    +0.000 A 
ATOM     10  C   UNL     1     -43.647 -19.677 -24.865  0.00  0.00    +0.000 A 
ATOM     11  C   UNL     1     -44.567 -18.946 -24.151  0.00  0.00    +0.000 A 
ATOM     12  C   UNL     1     -44.573 -18.900 -22.753  0.00  0.00    +0.000 A 
ATOM     13  C   UNL     1     -45.440 -18.332 -25.121  0.00  0.00    +0.000 C 
ATOM     14  O   UNL     1     -46.402 -17.560 -24.872  0.00  0.00    +0.000 OA
ATOM     15  O   UNL     1     -45.051 -18.701 -26.400  0.00  0.00    +0.000 OA
ATOM     16  C   UNL     1     -43.898 -19.548 -26.342  0.00  0.00    +0.000 C 
BRANCH   7  18
ATOM     17  C   UNL     1     -42.353 -20.037 -19.947  0.00  0.00    +0.000 C 
ATOM     18  O   UNL     1     -43.515 -19.649 -20.671  0.00  0.00    +0.000 OA
ENDBRANCH   7  18
BRANCH  12  19
ATOM     19  O   UNL     1     -45.552 -18.124 -22.112  0.00  0.00    +0.000 OA
ATOM     20  C   UNL     1     -45.341 -16.818 -21.597  0.00  0.00    +0.000 C 
ENDBRANCH  12  19
ENDBRANCH   1  16
BRANCH   2  21
ATOM     21  C   UNL     1     -42.776 -16.515 -26.543  0.00  0.00    +0.000 C 
ATOM     22  O   UNL     1     -42.575 -15.624 -25.674  0.00  0.00    +0.000 OA
ATOM     23  N   UNL     1     -43.743 -16.324 -27.587  0.00  0.00    +0.000 N 
ATOM     24  H   UNL     1     -43.895 -17.081 -28.198  0.00  0.00    +0.000 HD
BRANCH  23  25
ATOM     25  C   UNL     1     -44.508 -15.136 -27.826  0.00  0.00    +0.000 A 
ATOM     26  C   UNL     1     -45.427 -14.716 -26.854  0.00  0.00    +0.000 A 
ATOM     27  C   UNL     1     -46.180 -13.552 -27.046  0.00  0.00    +0.000 A 
ATOM     28  C   UNL     1     -46.020 -12.805 -28.216  0.00  0.00    +0.000 A 
ATOM     29  C   UNL     1     -45.093 -13.211 -29.187  0.00  0.00    +0.000 A 
ATOM     30  C   UNL     1     -44.350 -14.379 -29.000  0.00  0.00    +0.000 A 
ATOM     31  O   UNL     1     -44.918 -12.427 -30.330  0.00  0.00    +0.000 OA
ATOM     32  C   UNL     1     -45.420 -11.090 -30.383  0.00  0.00    +0.000 C 
ATOM     33  C   UNL     1     -46.800 -11.021 -29.724  0.00  0.00    +0.000 C 
ATOM     34  O   UNL     1     -46.764 -11.642 -28.434  0.00  0.00    +0.000 OA
ENDBRANCH  23  25
ENDBRANCH   2  21
TORSDOF 5
ENDMDL
MODEL 2
REMARK VINA RESULT:      -6.8      1.868      2.615
REMARK  Name = ZINC000009034026 ZINC09034026 PubChem-40911175
REMARK  5 active torsions:
REMARK  status: ('A' for Active; 'I' for Inactive)
REMARK    1  A    between atoms: N_1  and  C_16
REMARK    2  A    between atoms: C_2  and  C_21
REMARK    3  A    between atoms: C_7  and  O_18
REMARK    4  A    between atoms: C_12  and  O_19
REMARK    5  A    between atoms: N_23  and  C_25
REMARK                            x       y       z     vdW  Elec       q    Type
REMARK                         _______ _______ _______ _____ _____    ______ ____
ROOT
ATOM      1  N   UNL     1     -44.588 -17.539 -25.551  0.00  0.00    +0.000 N 
ATOM      2  C   UNL     1     -43.441 -16.642 -25.627  0.00  0.00    +0.000 C 
ATOM      3  C   UNL     1     -42.367 -17.388 -26.435  0.00  0.00    +0.000 C 
ATOM      4  C   UNL     1     -42.918 -18.776 -26.777  0.00  0.00    +0.000 C 
ATOM      5  C   UNL     1     -44.270 -18.760 -26.187  0.00  0.00    +0.000 C 
ATOM      6  O   UNL     1     -45.060 -19.739 -26.231  0.00  0.00    +0.000 OA
ENDROOT
BRANCH   1  16
ATOM      7  C   UNL     1     -44.781 -17.500 -20.496  0.00  0.00    +0.000 A 
ATOM      8  C   UNL     1     -44.606 -18.686 -21.250  0.00  0.00    +0.000 A 
ATOM      9  C   UNL     1     -44.893 -18.729 -22.621  0.00  0.00    +0.000 A 
ATOM     10  C   UNL     1     -45.354 -17.568 -23.233  0.00  0.00    +0.000 A 
ATOM     11  C   UNL     1     -45.537 -16.412 -22.512  0.00  0.00    +0.000 A 
ATOM     12  C   UNL     1     -45.264 -16.327 -21.142  0.00  0.00    +0.000 A 
ATOM     13  C   UNL     1     -46.052 -15.434 -23.436  0.00  0.00    +0.000 C 
ATOM     14  O   UNL     1     -46.329 -14.234 -23.172  0.00  0.00    +0.000 OA
ATOM     15  O   UNL     1     -46.185 -16.002 -24.695  0.00  0.00    +0.000 OA
ATOM     16  C   UNL     1     -45.744 -17.364 -24.671  0.00  0.00    +0.000 C 
BRANCH   7  18
ATOM     17  C   UNL     1     -43.186 -17.182 -18.626  0.00  0.00    +0.000 C 
ATOM     18  O   UNL     1     -44.480 -17.489 -19.130  0.00  0.00    +0.000 OA
ENDBRANCH   7  18
BRANCH  12  19
ATOM     19  O   UNL     1     -45.483 -15.102 -20.491  0.00  0.00    +0.000 OA
ATOM     20  C   UNL     1     -46.605 -14.811 -19.671  0.00  0.00    +0.000 C 
ENDBRANCH  12  19
ENDBRANCH   1  16
BRANCH   2  21
ATOM     21  C   UNL     1     -43.799 -15.368 -26.324  0.00  0.00    +0.000 C 
ATOM     22  O   UNL     1     -43.277 -14.289 -25.935  0.00  0.00    +0.000 OA
ATOM     23  N   UNL     1     -44.732 -15.386 -27.416  0.00  0.00    +0.000 N 
ATOM     24  H   UNL     1     -45.150 -16.251 -27.632  0.00  0.00    +0.000 HD
BRANCH  23  25
ATOM     25  C   UNL     1     -45.112 -14.264 -28.223  0.00  0.00    +0.000 A 
ATOM     26  C   UNL     1     -46.336 -13.630 -27.968  0.00  0.00    +0.000 A 
ATOM     27  C   UNL     1     -46.733 -12.522 -28.726  0.00  0.00    +0.000 A 
ATOM     28  C   UNL     1     -45.907 -12.047 -29.748  0.00  0.00    +0.000 A 
ATOM     29  C   UNL     1     -44.674 -12.667 -30.001  0.00  0.00    +0.000 A 
ATOM     30  C   UNL     1     -44.285 -13.779 -29.251  0.00  0.00    +0.000 A 
ATOM     31  O   UNL     1     -43.844 -12.149 -30.998  0.00  0.00    +0.000 OA
ATOM     32  C   UNL     1     -44.076 -10.846 -31.538  0.00  0.00    +0.000 C 
ATOM     33  C   UNL     1     -45.578 -10.615 -31.724  0.00  0.00    +0.000 C 
ATOM     34  O   UNL     1     -46.283 -10.945 -30.522  0.00  0.00    +0.000 OA
ENDBRANCH  23  25
ENDBRANCH   2  21
TORSDOF 5
ENDMDL
MODEL 3
REMARK VINA RESULT:      -6.7      9.902     14.572
REMARK  Name = ZINC000009034026 ZINC09034026 PubChem-40911175
REMARK  5 active torsions:
REMARK  status: ('A' for Active; 'I' for Inactive)
REMARK    1  A    between atoms: N_1  and  C_16
REMARK    2  A    between atoms: C_2  and  C_21
REMARK    3  A    between atoms: C_7  and  O_18
REMARK    4  A    between atoms: C_12  and  O_19
REMARK    5  A    between atoms: N_23  and  C_25
REMARK                            x       y       z     vdW  Elec       q    Type
REMARK                         _______ _______ _______ _____ _____    ______ ____
ROOT
ATOM      1  N   UNL     1     -46.429  -5.211 -30.361  0.00  0.00    +0.000 N 
ATOM      2  C   UNL     1     -45.409  -6.230 -30.147  0.00  0.00    +0.000 C 
ATOM      3  C   UNL     1     -45.316  -6.431 -28.626  0.00  0.00    +0.000 C 
ATOM      4  C   UNL     1     -46.285  -5.446 -27.963  0.00  0.00    +0.000 C 
ATOM      5  C   UNL     1     -46.902  -4.754 -29.110  0.00  0.00    +0.000 C 
ATOM      6  O   UNL     1     -47.756  -3.837 -28.992  0.00  0.00    +0.000 OA
ENDROOT
BRANCH   1  16
ATOM      7  C   UNL     1     -43.663  -1.650 -32.653  0.00  0.00    +0.000 A 
ATOM      8  C   UNL     1     -44.449  -1.392 -31.504  0.00  0.00    +0.000 A 
ATOM      9  C   UNL     1     -45.455  -2.278 -31.093  0.00  0.00    +0.000 A 
ATOM     10  C   UNL     1     -45.663  -3.429 -31.843  0.00  0.00    +0.000 A 
ATOM     11  C   UNL     1     -44.914  -3.688 -32.966  0.00  0.00    +0.000 A 
ATOM     12  C   UNL     1     -43.902  -2.831 -33.412  0.00  0.00    +0.000 A 
ATOM     13  C   UNL     1     -45.413  -4.926 -33.512  0.00  0.00    +0.000 C 
ATOM     14  O   UNL     1     -44.974  -5.519 -34.532  0.00  0.00    +0.000 OA
ATOM     15  O   UNL     1     -46.457  -5.396 -32.730  0.00  0.00    +0.000 OA
ATOM     16  C   UNL     1     -46.680  -4.515 -31.623  0.00  0.00    +0.000 C 
BRANCH   7  18
ATOM     17  C   UNL     1     -41.458  -0.575 -32.298  0.00  0.00    +0.000 C 
ATOM     18  O   UNL     1     -42.663  -0.748 -33.033  0.00  0.00    +0.000 OA
ENDBRANCH   7  18
BRANCH  12  19
ATOM     19  O   UNL     1     -43.190  -3.180 -34.570  0.00  0.00    +0.000 OA
ATOM     20  C   UNL     1     -41.899  -3.772 -34.579  0.00  0.00    +0.000 C 
ENDBRANCH  12  19
ENDBRANCH   1  16
BRANCH   2  21
ATOM     21  C   UNL     1     -45.792  -7.520 -30.801  0.00  0.00    +0.000 C 
ATOM     22  O   UNL     1     -46.852  -8.099 -30.438  0.00  0.00    +0.000 OA
ATOM     23  N   UNL     1     -44.954  -8.086 -31.820  0.00  0.00    +0.000 N 
ATOM     24  H   UNL     1     -44.111  -7.616 -32.015  0.00  0.00    +0.000 HD
BRANCH  23  25
ATOM     25  C   UNL     1     -45.228  -9.268 -32.583  0.00  0.00    +0.000 A 
ATOM     26  C   UNL     1     -44.949 -10.519 -32.015  0.00  0.00    +0.000 A 
ATOM     27  C   UNL     1     -45.218 -11.696 -32.724  0.00  0.00    +0.000 A 
ATOM     28  C   UNL     1     -45.763 -11.624 -34.009  0.00  0.00    +0.000 A 
ATOM     29  C   UNL     1     -46.057 -10.377 -34.579  0.00  0.00    +0.000 A 
ATOM     30  C   UNL     1     -45.778  -9.203 -33.875  0.00  0.00    +0.000 A 
ATOM     31  O   UNL     1     -46.641 -10.329 -35.847  0.00  0.00    +0.000 OA
ATOM     32  C   UNL     1     -47.220 -11.499 -36.429  0.00  0.00    +0.000 C 
ATOM     33  C   UNL     1     -46.344 -12.719 -36.136  0.00  0.00    +0.000 C 
ATOM     34  O   UNL     1     -46.036 -12.785 -34.740  0.00  0.00    +0.000 OA
ENDBRANCH  23  25
ENDBRANCH   2  21
TORSDOF 5
ENDMDL
