MODEL 1
REMARK VINA RESULT:      -7.3      0.000      0.000
REMARK  Name = ZINC000408624461
REMARK  4 active torsions:
REMARK  status: ('A' for Active; 'I' for Inactive)
REMARK    1  A    between atoms: C_1  and  N_2
REMARK    2  A    between atoms: C_1  and  C_17
REMARK    3  A    between atoms: N_18  and  C_20
REMARK    4  A    between atoms: C_25  and  N_27
REMARK                            x       y       z     vdW  Elec       q    Type
REMARK                         _______ _______ _______ _____ _____    ______ ____
ROOT
ATOM      1  C   UNL     1     -46.496  -6.548 -30.914  0.00  0.00    +0.000 C 
ENDROOT
BRANCH   1   2
ATOM      2  N   UNL     1     -45.615  -5.670 -31.669  0.00  0.00    +0.000 N 
ATOM      3  C   UNL     1     -45.908  -5.063 -32.914  0.00  0.00    +0.000 C 
ATOM      4  O   UNL     1     -46.942  -5.325 -33.583  0.00  0.00    +0.000 OA
ATOM      5  C   UNL     1     -44.884  -4.048 -33.322  0.00  0.00    +0.000 C 
ATOM      6  C   UNL     1     -43.843  -4.078 -32.144  0.00  0.00    +0.000 C 
ATOM      7  C   UNL     1     -44.411  -5.092 -31.197  0.00  0.00    +0.000 C 
ATOM      8  O   UNL     1     -43.908  -5.368 -30.076  0.00  0.00    +0.000 OA
ATOM      9  C   UNL     1     -43.728  -2.659 -31.515  0.00  0.00    +0.000 C 
ATOM     10  C   UNL     1     -45.133  -2.234 -31.094  0.00  0.00    +0.000 C 
ATOM     11  C   UNL     1     -46.034  -2.216 -32.093  0.00  0.00    +0.000 C 
ATOM     12  C   UNL     1     -45.483  -2.618 -33.460  0.00  0.00    +0.000 C 
ATOM     13  C   UNL     1     -44.253  -1.720 -33.834  0.00  0.00    +0.000 C 
ATOM     14  C   UNL     1     -44.022  -0.481 -32.971  0.00  0.00    +0.000 C 
ATOM     15  C   UNL     1     -43.211  -1.745 -32.680  0.00  0.00    +0.000 C 
ENDBRANCH   1   2
BRANCH   1  17
ATOM     16  O   UNL     1     -47.755  -4.796 -29.929  0.00  0.00    +0.000 OA
ATOM     17  C   UNL     1     -47.062  -5.829 -29.732  0.00  0.00    +0.000 C 
ATOM     18  N   UNL     1     -46.853  -6.276 -28.385  0.00  0.00    +0.000 N 
ATOM     19  H   UNL     1     -47.205  -5.689 -27.678  0.00  0.00    +0.000 HD
BRANCH  18  20
ATOM     20  C   UNL     1     -46.195  -7.469 -27.936  0.00  0.00    +0.000 A 
ATOM     21  C   UNL     1     -44.894  -7.372 -27.435  0.00  0.00    +0.000 A 
ATOM     22  C   UNL     1     -44.223  -8.513 -26.987  0.00  0.00    +0.000 A 
ATOM     23  C   UNL     1     -44.843  -9.766 -27.037  0.00  0.00    +0.000 A 
ATOM     24 CL   UNL     1     -43.959 -11.173 -26.471  0.00  0.00    +0.000 Cl
ATOM     25  C   UNL     1     -46.149  -9.879 -27.538  0.00  0.00    +0.000 A 
ATOM     26  C   UNL     1     -46.817  -8.724 -27.976  0.00  0.00    +0.000 A 
BRANCH  25  27
ATOM     27  N   UNL     1     -46.778 -11.166 -27.611  0.00  0.00    +0.000 N 
ATOM     28  O   UNL     1     -47.353 -11.663 -26.620  0.00  0.00    +0.000 OA
ATOM     29  O   UNL     1     -47.412 -11.714 -26.520  0.00  0.00    +0.000 OA
ENDBRANCH  25  27
ENDBRANCH  18  20
ENDBRANCH   1  17
TORSDOF 4
ENDMDL
MODEL 2
REMARK VINA RESULT:      -7.0      1.803      2.691
REMARK  Name = ZINC000408624461
REMARK  4 active torsions:
REMARK  status: ('A' for Active; 'I' for Inactive)
REMARK    1  A    between atoms: C_1  and  N_2
REMARK    2  A    between atoms: C_1  and  C_17
REMARK    3  A    between atoms: N_18  and  C_20
REMARK    4  A    between atoms: C_25  and  N_27
REMARK                            x       y       z     vdW  Elec       q    Type
REMARK                         _______ _______ _______ _____ _____    ______ ____
ROOT
ATOM      1  C   UNL     1     -46.966  -6.569 -31.595  0.00  0.00    +0.000 C 
ENDROOT
BRANCH   1   2
ATOM      2  N   UNL     1     -46.780  -5.157 -31.889  0.00  0.00    +0.000 N 
ATOM      3  C   UNL     1     -46.512  -4.135 -30.946  0.00  0.00    +0.000 C 
ATOM      4  O   UNL     1     -46.534  -4.323 -29.700  0.00  0.00    +0.000 OA
ATOM      5  C   UNL     1     -46.158  -2.828 -31.587  0.00  0.00    +0.000 C 
ATOM      6  C   UNL     1     -46.240  -3.138 -33.127  0.00  0.00    +0.000 C 
ATOM      7  C   UNL     1     -46.610  -4.590 -33.176  0.00  0.00    +0.000 C 
ATOM      8  O   UNL     1     -46.710  -5.255 -34.240  0.00  0.00    +0.000 OA
ATOM      9  C   UNL     1     -44.864  -2.841 -33.791  0.00  0.00    +0.000 C 
ATOM     10  C   UNL     1     -43.814  -3.661 -33.045  0.00  0.00    +0.000 C 
ATOM     11  C   UNL     1     -43.744  -3.412 -31.726  0.00  0.00    +0.000 C 
ATOM     12  C   UNL     1     -44.723  -2.353 -31.221  0.00  0.00    +0.000 C 
ATOM     13  C   UNL     1     -44.541  -1.019 -32.026  0.00  0.00    +0.000 C 
ATOM     14  C   UNL     1     -43.297  -0.914 -32.906  0.00  0.00    +0.000 C 
ATOM     15  C   UNL     1     -44.626  -1.309 -33.552  0.00  0.00    +0.000 C 
ENDBRANCH   1   2
BRANCH   1  17
ATOM     16  O   UNL     1     -45.055  -7.429 -32.704  0.00  0.00    +0.000 OA
ATOM     17  C   UNL     1     -45.653  -7.283 -31.605  0.00  0.00    +0.000 C 
ATOM     18  N   UNL     1     -45.046  -7.798 -30.411  0.00  0.00    +0.000 N 
ATOM     19  H   UNL     1     -44.219  -8.317 -30.539  0.00  0.00    +0.000 HD
BRANCH  18  20
ATOM     20  C   UNL     1     -45.490  -7.655 -29.055  0.00  0.00    +0.000 A 
ATOM     21  C   UNL     1     -45.005  -6.588 -28.296  0.00  0.00    +0.000 A 
ATOM     22  C   UNL     1     -45.418  -6.418 -26.971  0.00  0.00    +0.000 A 
ATOM     23  C   UNL     1     -46.317  -7.315 -26.388  0.00  0.00    +0.000 A 
ATOM     24 CL   UNL     1     -46.801  -7.068 -24.719  0.00  0.00    +0.000 Cl
ATOM     25  C   UNL     1     -46.812  -8.394 -27.138  0.00  0.00    +0.000 A 
ATOM     26  C   UNL     1     -46.398  -8.548 -28.471  0.00  0.00    +0.000 A 
BRANCH  25  27
ATOM     27  N   UNL     1     -47.718  -9.328 -26.534  0.00  0.00    +0.000 N 
ATOM     28  O   UNL     1     -47.311 -10.408 -26.057  0.00  0.00    +0.000 OA
ATOM     29  O   UNL     1     -47.271 -10.518 -26.007  0.00  0.00    +0.000 OA
ENDBRANCH  25  27
ENDBRANCH  18  20
ENDBRANCH   1  17
TORSDOF 4
ENDMDL
MODEL 3
REMARK VINA RESULT:      -7.0     12.283     14.320
REMARK  Name = ZINC000408624461
REMARK  4 active torsions:
REMARK  status: ('A' for Active; 'I' for Inactive)
REMARK    1  A    between atoms: C_1  and  N_2
REMARK    2  A    between atoms: C_1  and  C_17
REMARK    3  A    between atoms: N_18  and  C_20
REMARK    4  A    between atoms: C_25  and  N_27
REMARK                            x       y       z     vdW  Elec       q    Type
REMARK                         _______ _______ _______ _____ _____    ______ ____
ROOT
ATOM      1  C   UNL     1     -45.634 -15.834 -19.485  0.00  0.00    +0.000 C 
ENDROOT
BRANCH   1   2
ATOM      2  N   UNL     1     -46.272 -14.557 -19.204  0.00  0.00    +0.000 N 
ATOM      3  C   UNL     1     -46.269 -13.877 -17.963  0.00  0.00    +0.000 C 
ATOM      4  O   UNL     1     -45.811 -14.379 -16.902  0.00  0.00    +0.000 OA
ATOM      5  C   UNL     1     -46.825 -12.489 -18.057  0.00  0.00    +0.000 C 
ATOM      6  C   UNL     1     -47.212 -12.348 -19.575  0.00  0.00    +0.000 C 
ATOM      7  C   UNL     1     -46.811 -13.667 -20.166  0.00  0.00    +0.000 C 
ATOM      8  O   UNL     1     -46.890 -13.943 -21.391  0.00  0.00    +0.000 OA
ATOM      9  C   UNL     1     -46.445 -11.146 -20.198  0.00  0.00    +0.000 C 
ATOM     10  C   UNL     1     -44.956 -11.382 -19.954  0.00  0.00    +0.000 C 
ATOM     11  C   UNL     1     -44.616 -11.515 -18.660  0.00  0.00    +0.000 C 
ATOM     12  C   UNL     1     -45.781 -11.400 -17.677  0.00  0.00    +0.000 C 
ATOM     13  C   UNL     1     -46.540 -10.045 -17.892  0.00  0.00    +0.000 C 
ATOM     14  C   UNL     1     -45.851  -9.007 -18.776  0.00  0.00    +0.000 C 
ATOM     15  C   UNL     1     -46.935  -9.895 -19.389  0.00  0.00    +0.000 C 
ENDBRANCH   1   2
BRANCH   1  17
ATOM     16  O   UNL     1     -47.548 -16.791 -18.463  0.00  0.00    +0.000 OA
ATOM     17  C   UNL     1     -46.597 -16.957 -19.271  0.00  0.00    +0.000 C 
ATOM     18  N   UNL     1     -46.482 -18.211 -19.958  0.00  0.00    +0.000 N 
ATOM     19  H   UNL     1     -47.123 -18.909 -19.688  0.00  0.00    +0.000 HD
BRANCH  18  20
ATOM     20  C   UNL     1     -45.553 -18.581 -20.986  0.00  0.00    +0.000 A 
ATOM     21  C   UNL     1     -44.293 -19.057 -20.616  0.00  0.00    +0.000 A 
ATOM     22  C   UNL     1     -43.364 -19.428 -21.592  0.00  0.00    +0.000 A 
ATOM     23  C   UNL     1     -43.681 -19.325 -22.950  0.00  0.00    +0.000 A 
ATOM     24 CL   UNL     1     -42.479 -19.793 -24.140  0.00  0.00    +0.000 Cl
ATOM     25  C   UNL     1     -44.943 -18.847 -23.337  0.00  0.00    +0.000 A 
ATOM     26  C   UNL     1     -45.872 -18.487 -22.348  0.00  0.00    +0.000 A 
BRANCH  25  27
ATOM     27  N   UNL     1     -45.262 -18.719 -24.730  0.00  0.00    +0.000 N 
ATOM     28  O   UNL     1     -45.869 -19.623 -25.341  0.00  0.00    +0.000 OA
ATOM     29  O   UNL     1     -45.931 -19.714 -25.404  0.00  0.00    +0.000 OA
ENDBRANCH  25  27
ENDBRANCH  18  20
ENDBRANCH   1  17
TORSDOF 4
ENDMDL
