MODEL 1
REMARK VINA RESULT:      -6.9      0.000      0.000
REMARK  Name = ZINC000031808027
REMARK  1 active torsions:
REMARK  status: ('A' for Active; 'I' for Inactive)
REMARK    1  A    between atoms: C_7  and  C_24
REMARK                            x       y       z     vdW  Elec       q    Type
REMARK                         _______ _______ _______ _____ _____    ______ ____
ROOT
ATOM      1  C   UNL     1     -47.424  -4.452 -26.219  0.00  0.00    +0.000 C 
ATOM      2  C   UNL     1     -46.948  -4.708 -27.607  0.00  0.00    +0.000 A 
ATOM      3  N   UNL     1     -46.800  -3.742 -28.529  0.00  0.00    +0.000 NA
ATOM      4  N   UNL     1     -46.362  -4.312 -29.640  0.00  0.00    +0.000 N 
ATOM      5  C   UNL     1     -46.192  -5.638 -29.438  0.00  0.00    +0.000 A 
ATOM      6  C   UNL     1     -46.582  -5.936 -28.133  0.00  0.00    +0.000 A 
ATOM      7  C   UNL     1     -46.578  -7.223 -27.355  0.00  0.00    +0.000 C 
ATOM      8  S   UNL     1     -46.838  -8.730 -28.343  0.00  0.00    +0.000 S 
ATOM      9  C   UNL     1     -45.199  -8.636 -29.100  0.00  0.00    +0.000 C 
ATOM     10  C   UNL     1     -45.276  -7.888 -30.379  0.00  0.00    +0.000 C 
ATOM     11  O   UNL     1     -44.955  -8.482 -31.439  0.00  0.00    +0.000 OA
ATOM     12  N   UNL     1     -45.661  -6.512 -30.447  0.00  0.00    +0.000 N 
ATOM     13  H   UNL     1     -45.542  -6.095 -31.332  0.00  0.00    +0.000 HD
ATOM     14  C   UNL     1     -46.065  -3.562 -30.827  0.00  0.00    +0.000 A 
ATOM     15  N   UNL     1     -45.506  -2.318 -30.730  0.00  0.00    +0.000 NA
ATOM     16  C   UNL     1     -45.237  -1.564 -31.843  0.00  0.00    +0.000 A 
ATOM     17  N   UNL     1     -45.538  -2.036 -33.089  0.00  0.00    +0.000 NA
ATOM     18  C   UNL     1     -46.105  -3.262 -33.188  0.00  0.00    +0.000 A 
ATOM     19  N   UNL     1     -46.520  -3.862 -34.310  0.00  0.00    +0.000 N 
ATOM     20  C   UNL     1     -47.059  -5.020 -33.840  0.00  0.00    +0.000 A 
ATOM     21  N   UNL     1     -46.997  -5.149 -32.487  0.00  0.00    +0.000 NA
ATOM     22  C   UNL     1     -46.377  -4.023 -32.107  0.00  0.00    +0.000 A 
ATOM     23  H   UNL     1     -46.451  -3.546 -35.240  0.00  0.00    +0.000 HD
ENDROOT
BRANCH   7  24
ATOM     24  C   UNL     1     -45.472  -7.333 -26.337  0.00  0.00    +0.000 A 
ATOM     25  C   UNL     1     -44.153  -6.998 -26.682  0.00  0.00    +0.000 A 
ATOM     26  C   UNL     1     -43.127  -7.096 -25.739  0.00  0.00    +0.000 A 
ATOM     27  C   UNL     1     -43.411  -7.527 -24.443  0.00  0.00    +0.000 A 
ATOM     28  C   UNL     1     -44.720  -7.861 -24.088  0.00  0.00    +0.000 A 
ATOM     29  C   UNL     1     -45.752  -7.765 -25.027  0.00  0.00    +0.000 A 
ATOM     30 CL   UNL     1     -47.383  -8.189 -24.527  0.00  0.00    +0.000 Cl
ENDBRANCH   7  24
TORSDOF 1
ENDMDL
MODEL 2
REMARK VINA RESULT:      -6.6      4.886      7.049
REMARK  Name = ZINC000031808027
REMARK  1 active torsions:
REMARK  status: ('A' for Active; 'I' for Inactive)
REMARK    1  A    between atoms: C_7  and  C_24
REMARK                            x       y       z     vdW  Elec       q    Type
REMARK                         _______ _______ _______ _____ _____    ______ ____
ROOT
ATOM      1  C   UNL     1     -47.158  -3.363 -33.682  0.00  0.00    +0.000 C 
ATOM      2  C   UNL     1     -46.494  -4.694 -33.758  0.00  0.00    +0.000 A 
ATOM      3  N   UNL     1     -46.821  -5.634 -34.662  0.00  0.00    +0.000 NA
ATOM      4  N   UNL     1     -46.041  -6.681 -34.451  0.00  0.00    +0.000 N 
ATOM      5  C   UNL     1     -45.187  -6.418 -33.435  0.00  0.00    +0.000 A 
ATOM      6  C   UNL     1     -45.466  -5.143 -32.947  0.00  0.00    +0.000 A 
ATOM      7  C   UNL     1     -44.823  -4.323 -31.862  0.00  0.00    +0.000 C 
ATOM      8  S   UNL     1     -44.116  -5.277 -30.481  0.00  0.00    +0.000 S 
ATOM      9  C   UNL     1     -42.741  -5.891 -31.480  0.00  0.00    +0.000 C 
ATOM     10  C   UNL     1     -43.100  -7.197 -32.085  0.00  0.00    +0.000 C 
ATOM     11  O   UNL     1     -42.408  -8.204 -31.787  0.00  0.00    +0.000 OA
ATOM     12  N   UNL     1     -44.171  -7.347 -33.020  0.00  0.00    +0.000 N 
ATOM     13  H   UNL     1     -44.221  -8.232 -33.450  0.00  0.00    +0.000 HD
ATOM     14  C   UNL     1     -46.099  -7.863 -35.262  0.00  0.00    +0.000 A 
ATOM     15  N   UNL     1     -46.332  -7.762 -36.606  0.00  0.00    +0.000 NA
ATOM     16  C   UNL     1     -46.422  -8.872 -37.403  0.00  0.00    +0.000 A 
ATOM     17  N   UNL     1     -46.297 -10.123 -36.868  0.00  0.00    +0.000 NA
ATOM     18  C   UNL     1     -46.081 -10.227 -35.535  0.00  0.00    +0.000 A 
ATOM     19  N   UNL     1     -45.991 -11.360 -34.827  0.00  0.00    +0.000 N 
ATOM     20  C   UNL     1     -45.842 -10.898 -33.555  0.00  0.00    +0.000 A 
ATOM     21  N   UNL     1     -45.844  -9.541 -33.457  0.00  0.00    +0.000 NA
ATOM     22  C   UNL     1     -45.986  -9.149 -34.730  0.00  0.00    +0.000 A 
ATOM     23  H   UNL     1     -46.023 -12.291 -35.145  0.00  0.00    +0.000 HD
ENDROOT
BRANCH   7  24
ATOM     24  C   UNL     1     -43.940  -3.210 -32.362  0.00  0.00    +0.000 A 
ATOM     25  C   UNL     1     -42.892  -3.481 -33.256  0.00  0.00    +0.000 A 
ATOM     26  C   UNL     1     -42.074  -2.450 -33.724  0.00  0.00    +0.000 A 
ATOM     27  C   UNL     1     -42.297  -1.138 -33.303  0.00  0.00    +0.000 A 
ATOM     28  C   UNL     1     -43.338  -0.857 -32.416  0.00  0.00    +0.000 A 
ATOM     29  C   UNL     1     -44.161  -1.884 -31.943  0.00  0.00    +0.000 A 
ATOM     30 CL   UNL     1     -45.462  -1.474 -30.834  0.00  0.00    +0.000 Cl
ENDBRANCH   7  24
TORSDOF 1
ENDMDL
MODEL 3
REMARK VINA RESULT:      -6.5      2.978      4.157
REMARK  Name = ZINC000031808027
REMARK  1 active torsions:
REMARK  status: ('A' for Active; 'I' for Inactive)
REMARK    1  A    between atoms: C_7  and  C_24
REMARK                            x       y       z     vdW  Elec       q    Type
REMARK                         _______ _______ _______ _____ _____    ______ ____
ROOT
ATOM      1  C   UNL     1     -42.719  -6.938 -27.516  0.00  0.00    +0.000 C 
ATOM      2  C   UNL     1     -43.106  -6.206 -28.754  0.00  0.00    +0.000 A 
ATOM      3  N   UNL     1     -42.217  -5.755 -29.656  0.00  0.00    +0.000 NA
ATOM      4  N   UNL     1     -42.895  -5.160 -30.623  0.00  0.00    +0.000 N 
ATOM      5  C   UNL     1     -44.222  -5.250 -30.375  0.00  0.00    +0.000 A 
ATOM      6  C   UNL     1     -44.396  -5.906 -29.158  0.00  0.00    +0.000 A 
ATOM      7  C   UNL     1     -45.634  -6.312 -28.407  0.00  0.00    +0.000 C 
ATOM      8  S   UNL     1     -47.073  -5.220 -28.630  0.00  0.00    +0.000 S 
ATOM      9  C   UNL     1     -47.354  -5.772 -30.328  0.00  0.00    +0.000 C 
ATOM     10  C   UNL     1     -46.639  -4.881 -31.274  0.00  0.00    +0.000 C 
ATOM     11  O   UNL     1     -47.314  -4.242 -32.120  0.00  0.00    +0.000 OA
ATOM     12  N   UNL     1     -45.214  -4.752 -31.287  0.00  0.00    +0.000 N 
ATOM     13  H   UNL     1     -44.855  -4.237 -32.047  0.00  0.00    +0.000 HD
ATOM     14  C   UNL     1     -42.257  -4.586 -31.773  0.00  0.00    +0.000 A 
ATOM     15  N   UNL     1     -41.161  -5.191 -32.323  0.00  0.00    +0.000 NA
ATOM     16  C   UNL     1     -40.511  -4.654 -33.403  0.00  0.00    +0.000 A 
ATOM     17  N   UNL     1     -40.937  -3.479 -33.954  0.00  0.00    +0.000 NA
ATOM     18  C   UNL     1     -42.014  -2.869 -33.403  0.00  0.00    +0.000 A 
ATOM     19  N   UNL     1     -42.537  -1.692 -33.766  0.00  0.00    +0.000 N 
ATOM     20  C   UNL     1     -43.539  -1.526 -32.861  0.00  0.00    +0.000 A 
ATOM     21  N   UNL     1     -43.645  -2.542 -31.962  0.00  0.00    +0.000 NA
ATOM     22  C   UNL     1     -42.670  -3.380 -32.341  0.00  0.00    +0.000 A 
ATOM     23  H   UNL     1     -42.267  -1.097 -34.503  0.00  0.00    +0.000 HD
ENDROOT
BRANCH   7  24
ATOM     24  C   UNL     1     -45.955  -7.782 -28.482  0.00  0.00    +0.000 A 
ATOM     25  C   UNL     1     -45.723  -8.501 -29.665  0.00  0.00    +0.000 A 
ATOM     26  C   UNL     1     -46.017  -9.865 -29.737  0.00  0.00    +0.000 A 
ATOM     27  C   UNL     1     -46.543 -10.523 -28.625  0.00  0.00    +0.000 A 
ATOM     28  C   UNL     1     -46.776  -9.819 -27.441  0.00  0.00    +0.000 A 
ATOM     29  C   UNL     1     -46.485  -8.453 -27.363  0.00  0.00    +0.000 A 
ATOM     30 CL   UNL     1     -46.789  -7.616 -25.848  0.00  0.00    +0.000 Cl
ENDBRANCH   7  24
TORSDOF 1
ENDMDL
