MODEL 1
REMARK VINA RESULT:      -7.0      0.000      0.000
REMARK  Name = ZINC000224489095
REMARK  3 active torsions:
REMARK  status: ('A' for Active; 'I' for Inactive)
REMARK    1  A    between atoms: C_1  and  C_25
REMARK    2  A    between atoms: N_3  and  C_5
REMARK    3  A    between atoms: N_27  and  S_28
REMARK                            x       y       z     vdW  Elec       q    Type
REMARK                         _______ _______ _______ _____ _____    ______ ____
ROOT
ATOM      1  C   UNL     1     -46.639  -3.692 -32.629  0.00  0.00    +0.000 C 
ATOM      2  O   UNL     1     -47.108  -3.030 -33.591  0.00  0.00    +0.000 OA
ATOM      3  N   UNL     1     -47.545  -4.386 -31.760  0.00  0.00    +0.000 N 
ATOM      4  H   UNL     1     -48.476  -4.470 -32.071  0.00  0.00    +0.000 HD
ENDROOT
BRANCH   3   5
ATOM      5  C   UNL     1     -47.240  -4.972 -30.484  0.00  0.00    +0.000 A 
ATOM      6  C   UNL     1     -46.996  -4.168 -29.338  0.00  0.00    +0.000 A 
ATOM      7  C   UNL     1     -46.712  -4.747 -28.083  0.00  0.00    +0.000 A 
ATOM      8  C   UNL     1     -46.684  -6.138 -27.991  0.00  0.00    +0.000 A 
ATOM      9  C   UNL     1     -46.928  -6.897 -29.087  0.00  0.00    +0.000 A 
ATOM     10  C   UNL     1     -46.864  -8.227 -28.820  0.00  0.00    +0.000 A 
ATOM     11  C   UNL     1     -47.086  -9.158 -29.838  0.00  0.00    +0.000 A 
ATOM     12  C   UNL     1     -47.379  -8.677 -31.133  0.00  0.00    +0.000 A 
ATOM     13  C   UNL     1     -47.443  -7.287 -31.390  0.00  0.00    +0.000 A 
ATOM     14  C   UNL     1     -47.211  -6.375 -30.345  0.00  0.00    +0.000 A 
ATOM     15  C   UNL     1     -46.537  -8.450 -27.379  0.00  0.00    +0.000 C 
ATOM     16  C   UNL     1     -46.422  -7.009 -26.805  0.00  0.00    +0.000 C 
ENDBRANCH   3   5
BRANCH   1  25
ATOM     17  C   UNL     1     -40.481   0.276 -32.183  0.00  0.00    +0.000 C 
ATOM     18  C   UNL     1     -41.149  -1.013 -32.499  0.00  0.00    +0.000 A 
ATOM     19  C   UNL     1     -40.398  -2.090 -32.981  0.00  0.00    +0.000 A 
ATOM     20  C   UNL     1     -41.024  -3.302 -33.284  0.00  0.00    +0.000 A 
ATOM     21  C   UNL     1     -42.407  -3.443 -33.103  0.00  0.00    +0.000 A 
ATOM     22  C   UNL     1     -43.155  -2.363 -32.601  0.00  0.00    +0.000 A 
ATOM     23  C   UNL     1     -42.528  -1.149 -32.309  0.00  0.00    +0.000 A 
ATOM     24  O   UNL     1     -44.533  -2.511 -32.401  0.00  0.00    +0.000 OA
ATOM     25  C   UNL     1     -45.153  -3.799 -32.459  0.00  0.00    +0.000 C 
ATOM     26  C   UNL     1     -44.545  -4.631 -33.586  0.00  0.00    +0.000 C 
ATOM     27  N   UNL     1     -43.093  -4.662 -33.434  0.00  0.00    +0.000 N 
BRANCH  27  28
ATOM     28  S   UNL     1     -42.261  -6.180 -33.585  0.00  0.00    +0.000 S 
ATOM     29  C   UNL     1     -41.364  -6.533 -32.090  0.00  0.00    +0.000 C 
ATOM     30  O   UNL     1     -41.314  -6.121 -34.750  0.00  0.00    +0.000 OA
ATOM     31  O   UNL     1     -43.258  -7.281 -33.815  0.00  0.00    +0.000 OA
ENDBRANCH  27  28
ENDBRANCH   1  25
TORSDOF 3
ENDMDL
MODEL 2
REMARK VINA RESULT:      -6.8      8.125     10.823
REMARK  Name = ZINC000224489095
REMARK  3 active torsions:
REMARK  status: ('A' for Active; 'I' for Inactive)
REMARK    1  A    between atoms: C_1  and  C_25
REMARK    2  A    between atoms: N_3  and  C_5
REMARK    3  A    between atoms: N_27  and  S_28
REMARK                            x       y       z     vdW  Elec       q    Type
REMARK                         _______ _______ _______ _____ _____    ______ ____
ROOT
ATOM      1  C   UNL     1     -45.937  -6.843 -21.356  0.00  0.00    +0.000 C 
ATOM      2  O   UNL     1     -46.034  -7.805 -20.550  0.00  0.00    +0.000 OA
ATOM      3  N   UNL     1     -47.082  -6.479 -22.141  0.00  0.00    +0.000 N 
ATOM      4  H   UNL     1     -47.944  -6.872 -21.870  0.00  0.00    +0.000 HD
ENDROOT
BRANCH   3   5
ATOM      5  C   UNL     1     -47.106  -5.601 -23.278  0.00  0.00    +0.000 A 
ATOM      6  C   UNL     1     -47.034  -6.104 -24.604  0.00  0.00    +0.000 A 
ATOM      7  C   UNL     1     -47.074  -5.240 -25.719  0.00  0.00    +0.000 A 
ATOM      8  C   UNL     1     -47.195  -3.870 -25.487  0.00  0.00    +0.000 A 
ATOM      9  C   UNL     1     -47.274  -3.400 -24.218  0.00  0.00    +0.000 A 
ATOM     10  C   UNL     1     -47.391  -2.049 -24.174  0.00  0.00    +0.000 A 
ATOM     11  C   UNL     1     -47.481  -1.392 -22.943  0.00  0.00    +0.000 A 
ATOM     12  C   UNL     1     -47.450  -2.171 -21.766  0.00  0.00    +0.000 A 
ATOM     13  C   UNL     1     -47.330  -3.579 -21.834  0.00  0.00    +0.000 A 
ATOM     14  C   UNL     1     -47.238  -4.210 -23.088  0.00  0.00    +0.000 A 
ATOM     15  C   UNL     1     -47.395  -1.484 -25.558  0.00  0.00    +0.000 C 
ATOM     16  C   UNL     1     -47.269  -2.741 -26.464  0.00  0.00    +0.000 C 
ENDBRANCH   3   5
BRANCH   1  25
ATOM     17  C   UNL     1     -39.254  -6.774 -24.388  0.00  0.00    +0.000 C 
ATOM     18  C   UNL     1     -40.161  -6.357 -23.287  0.00  0.00    +0.000 A 
ATOM     19  C   UNL     1     -39.662  -5.607 -22.217  0.00  0.00    +0.000 A 
ATOM     20  C   UNL     1     -40.512  -5.219 -21.178  0.00  0.00    +0.000 A 
ATOM     21  C   UNL     1     -41.867  -5.575 -21.206  0.00  0.00    +0.000 A 
ATOM     22  C   UNL     1     -42.367  -6.315 -22.294  0.00  0.00    +0.000 A 
ATOM     23  C   UNL     1     -41.513  -6.712 -23.326  0.00  0.00    +0.000 A 
ATOM     24  O   UNL     1     -43.725  -6.654 -22.332  0.00  0.00    +0.000 OA
ATOM     25  C   UNL     1     -44.659  -6.061 -21.425  0.00  0.00    +0.000 C 
ATOM     26  C   UNL     1     -44.039  -5.928 -20.036  0.00  0.00    +0.000 C 
ATOM     27  N   UNL     1     -42.765  -5.223 -20.141  0.00  0.00    +0.000 N 
BRANCH  27  28
ATOM     28  S   UNL     1     -42.417  -3.939 -19.025  0.00  0.00    +0.000 S 
ATOM     29  C   UNL     1     -43.778  -3.725 -17.899  0.00  0.00    +0.000 C 
ATOM     30  O   UNL     1     -42.174  -2.663 -19.783  0.00  0.00    +0.000 OA
ATOM     31  O   UNL     1     -41.189  -4.280 -18.230  0.00  0.00    +0.000 OA
ENDBRANCH  27  28
ENDBRANCH   1  25
TORSDOF 3
ENDMDL
MODEL 3
REMARK VINA RESULT:      -6.8      4.164      7.453
REMARK  Name = ZINC000224489095
REMARK  3 active torsions:
REMARK  status: ('A' for Active; 'I' for Inactive)
REMARK    1  A    between atoms: C_1  and  C_25
REMARK    2  A    between atoms: N_3  and  C_5
REMARK    3  A    between atoms: N_27  and  S_28
REMARK                            x       y       z     vdW  Elec       q    Type
REMARK                         _______ _______ _______ _____ _____    ______ ____
ROOT
ATOM      1  C   UNL     1     -42.611  -6.745 -35.078  0.00  0.00    +0.000 C 
ATOM      2  O   UNL     1     -41.555  -7.125 -34.508  0.00  0.00    +0.000 OA
ATOM      3  N   UNL     1     -43.252  -7.630 -36.008  0.00  0.00    +0.000 N 
ATOM      4  H   UNL     1     -42.945  -8.566 -36.009  0.00  0.00    +0.000 HD
ENDROOT
BRANCH   3   5
ATOM      5  C   UNL     1     -44.297  -7.297 -36.937  0.00  0.00    +0.000 A 
ATOM      6  C   UNL     1     -45.667  -7.441 -36.594  0.00  0.00    +0.000 A 
ATOM      7  C   UNL     1     -46.691  -7.098 -37.502  0.00  0.00    +0.000 A 
ATOM      8  C   UNL     1     -46.322  -6.602 -38.753  0.00  0.00    +0.000 A 
ATOM      9  C   UNL     1     -45.012  -6.458 -39.068  0.00  0.00    +0.000 A 
ATOM     10  C   UNL     1     -44.832  -5.962 -40.318  0.00  0.00    +0.000 A 
ATOM     11  C   UNL     1     -43.541  -5.752 -40.811  0.00  0.00    +0.000 A 
ATOM     12  C   UNL     1     -42.448  -6.065 -39.975  0.00  0.00    +0.000 A 
ATOM     13  C   UNL     1     -42.656  -6.580 -38.673  0.00  0.00    +0.000 A 
ATOM     14  C   UNL     1     -43.968  -6.783 -38.208  0.00  0.00    +0.000 A 
ATOM     15  C   UNL     1     -46.154  -5.725 -40.976  0.00  0.00    +0.000 C 
ATOM     16  C   UNL     1     -47.181  -6.158 -39.892  0.00  0.00    +0.000 C 
ENDBRANCH   3   5
BRANCH   1  25
ATOM     17  C   UNL     1     -41.032  -0.190 -32.180  0.00  0.00    +0.000 C 
ATOM     18  C   UNL     1     -42.036  -1.242 -32.486  0.00  0.00    +0.000 A 
ATOM     19  C   UNL     1     -43.363  -1.084 -32.074  0.00  0.00    +0.000 A 
ATOM     20  C   UNL     1     -44.308  -2.075 -32.355  0.00  0.00    +0.000 A 
ATOM     21  C   UNL     1     -43.929  -3.228 -33.056  0.00  0.00    +0.000 A 
ATOM     22  C   UNL     1     -42.597  -3.374 -33.484  0.00  0.00    +0.000 A 
ATOM     23  C   UNL     1     -41.652  -2.387 -33.191  0.00  0.00    +0.000 A 
ATOM     24  O   UNL     1     -42.223  -4.517 -34.202  0.00  0.00    +0.000 OA
ATOM     25  C   UNL     1     -43.208  -5.417 -34.721  0.00  0.00    +0.000 C 
ATOM     26  C   UNL     1     -44.346  -5.595 -33.718  0.00  0.00    +0.000 C 
ATOM     27  N   UNL     1     -44.863  -4.284 -33.337  0.00  0.00    +0.000 N 
BRANCH  27  28
ATOM     28  S   UNL     1     -46.581  -4.030 -33.309  0.00  0.00    +0.000 S 
ATOM     29  C   UNL     1     -47.208  -4.288 -31.664  0.00  0.00    +0.000 C 
ATOM     30  O   UNL     1     -47.246  -4.980 -34.266  0.00  0.00    +0.000 OA
ATOM     31  O   UNL     1     -46.890  -2.619 -33.722  0.00  0.00    +0.000 OA
ENDBRANCH  27  28
ENDBRANCH   1  25
TORSDOF 3
ENDMDL
