MODEL 1
REMARK VINA RESULT:      -7.2      0.000      0.000
REMARK  Name = ZINC000004702219 ZINC04702219 PubChem-1342041
REMARK  3 active torsions:
REMARK  status: ('A' for Active; 'I' for Inactive)
REMARK    1  A    between atoms: C_3  and  C_22
REMARK    2  A    between atoms: C_4  and  C_16
REMARK    3  A    between atoms: N_24  and  C_26
REMARK                            x       y       z     vdW  Elec       q    Type
REMARK                         _______ _______ _______ _____ _____    ______ ____
ROOT
ATOM      1  C   UNL     1     -44.670  -8.146 -34.018  0.00  0.00    +0.000 C 
ATOM      2  C   UNL     1     -44.847  -6.977 -33.108  0.00  0.00    +0.000 C 
ATOM      3  C   UNL     1     -45.497  -7.053 -31.922  0.00  0.00    +0.000 C 
ATOM      4  C   UNL     1     -45.515  -5.840 -31.008  0.00  0.00    +0.000 C 
ATOM      5  C   UNL     1     -45.272  -4.520 -31.707  0.00  0.00    +0.000 C 
ATOM      6  C   UNL     1     -44.624  -4.494 -32.882  0.00  0.00    +0.000 C 
ATOM      7  N   UNL     1     -44.342  -5.717 -33.564  0.00  0.00    +0.000 N 
ATOM      8  C   UNL     1     -44.308  -3.195 -33.573  0.00  0.00    +0.000 C 
ATOM      9  C   UNL     1     -44.056  -2.051 -32.587  0.00  0.00    +0.000 C 
ATOM     10  C   UNL     1     -45.207  -1.927 -31.585  0.00  0.00    +0.000 C 
ATOM     11  C   UNL     1     -45.649  -3.254 -31.036  0.00  0.00    +0.000 C 
ATOM     12  O   UNL     1     -46.367  -3.277 -30.001  0.00  0.00    +0.000 OA
ATOM     13  C   UNL     1     -43.954  -0.757 -33.365  0.00  0.00    +0.000 C 
ATOM     14  C   UNL     1     -42.745  -2.271 -31.849  0.00  0.00    +0.000 C 
ATOM     15  H   UNL     1     -43.782  -5.693 -34.373  0.00  0.00    +0.000 HD
ENDROOT
BRANCH   4  16
ATOM     16  C   UNL     1     -44.560  -6.015 -29.861  0.00  0.00    +0.000 A 
ATOM     17  C   UNL     1     -45.017  -6.302 -28.568  0.00  0.00    +0.000 A 
ATOM     18  C   UNL     1     -44.103  -6.464 -27.526  0.00  0.00    +0.000 A 
ATOM     19  C   UNL     1     -42.737  -6.337 -27.791  0.00  0.00    +0.000 A 
ATOM     20  N   UNL     1     -42.311  -6.060 -29.052  0.00  0.00    +0.000 NA
ATOM     21  C   UNL     1     -43.184  -5.899 -30.082  0.00  0.00    +0.000 A 
ENDBRANCH   4  16
BRANCH   3  22
ATOM     22  C   UNL     1     -46.154  -8.294 -31.416  0.00  0.00    +0.000 C 
ATOM     23  O   UNL     1     -47.353  -8.557 -31.701  0.00  0.00    +0.000 OA
ATOM     24  N   UNL     1     -45.400  -9.190 -30.586  0.00  0.00    +0.000 N 
ATOM     25  H   UNL     1     -44.481  -8.915 -30.365  0.00  0.00    +0.000 HD
BRANCH  24  26
ATOM     26  C   UNL     1     -45.840 -10.443 -30.044  0.00  0.00    +0.000 A 
ATOM     27  C   UNL     1     -45.769 -11.584 -30.851  0.00  0.00    +0.000 A 
ATOM     28  C   UNL     1     -46.191 -12.824 -30.361  0.00  0.00    +0.000 A 
ATOM     29  C   UNL     1     -46.688 -12.929 -29.059  0.00  0.00    +0.000 A 
ATOM     30  C   UNL     1     -46.763 -11.794 -28.248  0.00  0.00    +0.000 A 
ATOM     31  C   UNL     1     -46.340 -10.555 -28.738  0.00  0.00    +0.000 A 
ATOM     32  F   UNL     1     -47.245 -11.894 -26.986  0.00  0.00    +0.000 F 
ENDBRANCH  24  26
ENDBRANCH   3  22
TORSDOF 3
ENDMDL
MODEL 2
REMARK VINA RESULT:      -7.0      8.941     14.430
REMARK  Name = ZINC000004702219 ZINC04702219 PubChem-1342041
REMARK  3 active torsions:
REMARK  status: ('A' for Active; 'I' for Inactive)
REMARK    1  A    between atoms: C_3  and  C_22
REMARK    2  A    between atoms: C_4  and  C_16
REMARK    3  A    between atoms: N_24  and  C_26
REMARK                            x       y       z     vdW  Elec       q    Type
REMARK                         _______ _______ _______ _____ _____    ______ ____
ROOT
ATOM      1  C   UNL     1     -42.786 -14.215 -22.760  0.00  0.00    +0.000 C 
ATOM      2  C   UNL     1     -43.487 -15.436 -22.264  0.00  0.00    +0.000 C 
ATOM      3  C   UNL     1     -44.680 -15.854 -22.749  0.00  0.00    +0.000 C 
ATOM      4  C   UNL     1     -45.252 -17.178 -22.270  0.00  0.00    +0.000 C 
ATOM      5  C   UNL     1     -44.720 -17.647 -20.934  0.00  0.00    +0.000 C 
ATOM      6  C   UNL     1     -43.532 -17.205 -20.493  0.00  0.00    +0.000 C 
ATOM      7  N   UNL     1     -42.868 -16.146 -21.186  0.00  0.00    +0.000 N 
ATOM      8  C   UNL     1     -42.942 -17.701 -19.201  0.00  0.00    +0.000 C 
ATOM      9  C   UNL     1     -43.325 -19.151 -18.898  0.00  0.00    +0.000 C 
ATOM     10  C   UNL     1     -44.843 -19.344 -18.972  0.00  0.00    +0.000 C 
ATOM     11  C   UNL     1     -45.458 -18.682 -20.172  0.00  0.00    +0.000 C 
ATOM     12  O   UNL     1     -46.626 -19.004 -20.514  0.00  0.00    +0.000 OA
ATOM     13  C   UNL     1     -42.865 -19.491 -17.497  0.00  0.00    +0.000 C 
ATOM     14  C   UNL     1     -42.634 -20.094 -19.871  0.00  0.00    +0.000 C 
ATOM     15  H   UNL     1     -41.955 -15.898 -20.913  0.00  0.00    +0.000 HD
ENDROOT
BRANCH   4  16
ATOM     16  C   UNL     1     -45.085 -18.247 -23.312  0.00  0.00    +0.000 A 
ATOM     17  C   UNL     1     -43.928 -19.035 -23.371  0.00  0.00    +0.000 A 
ATOM     18  C   UNL     1     -43.807 -20.023 -24.348  0.00  0.00    +0.000 A 
ATOM     19  C   UNL     1     -44.849 -20.213 -25.258  0.00  0.00    +0.000 A 
ATOM     20  N   UNL     1     -45.967 -19.441 -25.186  0.00  0.00    +0.000 NA
ATOM     21  C   UNL     1     -46.105 -18.473 -24.241  0.00  0.00    +0.000 A 
ENDBRANCH   4  16
BRANCH   3  22
ATOM     22  C   UNL     1     -45.454 -15.118 -23.791  0.00  0.00    +0.000 C 
ATOM     23  O   UNL     1     -46.635 -14.736 -23.575  0.00  0.00    +0.000 OA
ATOM     24  N   UNL     1     -44.835 -14.854 -25.060  0.00  0.00    +0.000 N 
ATOM     25  H   UNL     1     -43.925 -15.209 -25.186  0.00  0.00    +0.000 HD
BRANCH  24  26
ATOM     26  C   UNL     1     -45.396 -14.129 -26.162  0.00  0.00    +0.000 A 
ATOM     27  C   UNL     1     -45.174 -14.602 -27.460  0.00  0.00    +0.000 A 
ATOM     28  C   UNL     1     -45.701 -13.921 -28.561  0.00  0.00    +0.000 A 
ATOM     29  C   UNL     1     -46.454 -12.760 -28.370  0.00  0.00    +0.000 A 
ATOM     30  C   UNL     1     -46.681 -12.281 -27.077  0.00  0.00    +0.000 A 
ATOM     31  C   UNL     1     -46.154 -12.963 -25.977  0.00  0.00    +0.000 A 
ATOM     32  F   UNL     1     -47.411 -11.155 -26.891  0.00  0.00    +0.000 F 
ENDBRANCH  24  26
ENDBRANCH   3  22
TORSDOF 3
ENDMDL
MODEL 3
REMARK VINA RESULT:      -6.8      6.856     10.173
REMARK  Name = ZINC000004702219 ZINC04702219 PubChem-1342041
REMARK  3 active torsions:
REMARK  status: ('A' for Active; 'I' for Inactive)
REMARK    1  A    between atoms: C_3  and  C_22
REMARK    2  A    between atoms: C_4  and  C_16
REMARK    3  A    between atoms: N_24  and  C_26
REMARK                            x       y       z     vdW  Elec       q    Type
REMARK                         _______ _______ _______ _____ _____    ______ ____
ROOT
ATOM      1  C   UNL     1     -43.483 -17.507 -26.803  0.00  0.00    +0.000 C 
ATOM      2  C   UNL     1     -44.231 -16.217 -26.873  0.00  0.00    +0.000 C 
ATOM      3  C   UNL     1     -45.106 -15.817 -25.920  0.00  0.00    +0.000 C 
ATOM      4  C   UNL     1     -45.722 -14.431 -26.016  0.00  0.00    +0.000 C 
ATOM      5  C   UNL     1     -45.721 -13.836 -27.407  0.00  0.00    +0.000 C 
ATOM      6  C   UNL     1     -44.835 -14.266 -28.319  0.00  0.00    +0.000 C 
ATOM      7  N   UNL     1     -44.033 -15.414 -28.041  0.00  0.00    +0.000 N 
ATOM      8  C   UNL     1     -44.763 -13.651 -29.690  0.00  0.00    +0.000 C 
ATOM      9  C   UNL     1     -45.128 -12.165 -29.688  0.00  0.00    +0.000 C 
ATOM     10  C   UNL     1     -46.477 -11.932 -29.002  0.00  0.00    +0.000 C 
ATOM     11  C   UNL     1     -46.621 -12.701 -27.720  0.00  0.00    +0.000 C 
ATOM     12  O   UNL     1     -47.536 -12.380 -26.916  0.00  0.00    +0.000 OA
ATOM     13  C   UNL     1     -45.228 -11.689 -31.121  0.00  0.00    +0.000 C 
ATOM     14  C   UNL     1     -44.045 -11.356 -28.991  0.00  0.00    +0.000 C 
ATOM     15  H   UNL     1     -43.320 -15.661 -28.674  0.00  0.00    +0.000 HD
ENDROOT
BRANCH   4  16
ATOM     16  C   UNL     1     -45.083 -13.488 -25.036  0.00  0.00    +0.000 A 
ATOM     17  C   UNL     1     -43.772 -13.027 -25.214  0.00  0.00    +0.000 A 
ATOM     18  C   UNL     1     -43.211 -12.147 -24.288  0.00  0.00    +0.000 A 
ATOM     19  C   UNL     1     -43.971 -11.736 -23.191  0.00  0.00    +0.000 A 
ATOM     20  N   UNL     1     -45.243 -12.191 -23.034  0.00  0.00    +0.000 NA
ATOM     21  C   UNL     1     -45.809 -13.048 -23.925  0.00  0.00    +0.000 A 
ENDBRANCH   4  16
BRANCH   3  22
ATOM     22  C   UNL     1     -45.462 -16.636 -24.725  0.00  0.00    +0.000 C 
ATOM     23  O   UNL     1     -46.396 -17.481 -24.772  0.00  0.00    +0.000 OA
ATOM     24  N   UNL     1     -44.727 -16.445 -23.507  0.00  0.00    +0.000 N 
ATOM     25  H   UNL     1     -44.034 -15.746 -23.518  0.00  0.00    +0.000 HD
BRANCH  24  26
ATOM     26  C   UNL     1     -44.891 -17.162 -22.276  0.00  0.00    +0.000 A 
ATOM     27  C   UNL     1     -44.251 -18.398 -22.129  0.00  0.00    +0.000 A 
ATOM     28  C   UNL     1     -44.389 -19.130 -20.946  0.00  0.00    +0.000 A 
ATOM     29  C   UNL     1     -45.171 -18.630 -19.902  0.00  0.00    +0.000 A 
ATOM     30  C   UNL     1     -45.814 -17.397 -20.041  0.00  0.00    +0.000 A 
ATOM     31  C   UNL     1     -45.675 -16.666 -21.224  0.00  0.00    +0.000 A 
ATOM     32  F   UNL     1     -46.573 -16.912 -19.029  0.00  0.00    +0.000 F 
ENDBRANCH  24  26
ENDBRANCH   3  22
TORSDOF 3
ENDMDL
