MODEL 1
REMARK VINA RESULT:      -6.8      0.000      0.000
REMARK  Name = ZINC000018200371
REMARK  2 active torsions:
REMARK  status: ('A' for Active; 'I' for Inactive)
REMARK    1  A    between atoms: C_1  and  C_31
REMARK    2  A    between atoms: C_3  and  O_4
REMARK                            x       y       z     vdW  Elec       q    Type
REMARK                         _______ _______ _______ _____ _____    ______ ____
ROOT
ATOM      1  C   UNL     1     -46.172  -5.730 -32.231  0.00  0.00    +0.000 C 
ATOM      2  C   UNL     1     -46.386  -5.820 -30.752  0.00  0.00    +0.000 A 
ATOM      3  C   UNL     1     -47.056  -5.030 -29.853  0.00  0.00    +0.000 A 
ATOM      4  N   UNL     1     -46.935  -5.548 -28.612  0.00  0.00    +0.000 NA
ATOM      5  N   UNL     1     -46.202  -6.655 -28.694  0.00  0.00    +0.000 N 
ATOM      6  C   UNL     1     -45.874  -6.812 -29.988  0.00  0.00    +0.000 A 
ATOM      7  N   UNL     1     -45.111  -7.876 -30.542  0.00  0.00    +0.000 N 
ATOM      8  C   UNL     1     -44.920  -7.923 -31.968  0.00  0.00    +0.000 C 
ATOM      9  C   UNL     1     -45.412  -6.943 -32.785  0.00  0.00    +0.000 C 
ATOM     10  C   UNL     1     -45.271  -7.083 -34.255  0.00  0.00    +0.000 C 
ATOM     11  O   UNL     1     -45.787  -6.234 -35.030  0.00  0.00    +0.000 OA
ATOM     12  C   UNL     1     -44.492  -8.218 -34.850  0.00  0.00    +0.000 C 
ATOM     13  C   UNL     1     -44.504  -9.451 -33.948  0.00  0.00    +0.000 C 
ATOM     14  C   UNL     1     -43.492 -10.445 -34.476  0.00  0.00    +0.000 C 
ATOM     15  C   UNL     1     -45.875 -10.109 -33.964  0.00  0.00    +0.000 C 
ATOM     16  C   UNL     1     -44.111  -9.067 -32.520  0.00  0.00    +0.000 C 
ATOM     17  H   UNL     1     -45.948  -7.246 -27.949  0.00  0.00    +0.000 HD
ATOM     18  H   UNL     1     -44.720  -8.568 -29.961  0.00  0.00    +0.000 HD
ENDROOT
BRANCH   1  29
ATOM     19  C   UNL     1     -47.649  -3.536 -33.727  0.00  0.00    +0.000 C 
ATOM     20  C   UNL     1     -46.223  -3.396 -33.313  0.00  0.00    +0.000 A 
ATOM     21  N   UNL     1     -45.569  -2.246 -33.624  0.00  0.00    +0.000 NA
ATOM     22  C   UNL     1     -44.270  -2.057 -33.282  0.00  0.00    +0.000 A 
ATOM     23  C   UNL     1     -43.612  -0.868 -33.609  0.00  0.00    +0.000 A 
ATOM     24  C   UNL     1     -42.272  -0.691 -33.248  0.00  0.00    +0.000 A 
ATOM     25  C   UNL     1     -41.589  -1.702 -32.562  0.00  0.00    +0.000 A 
ATOM     26  C   UNL     1     -42.244  -2.894 -32.232  0.00  0.00    +0.000 A 
ATOM     27  C   UNL     1     -43.583  -3.073 -32.591  0.00  0.00    +0.000 A 
ATOM     28  N   UNL     1     -44.233  -4.223 -32.279  0.00  0.00    +0.000 NA
ATOM     29  C   UNL     1     -45.536  -4.418 -32.617  0.00  0.00    +0.000 A 
ENDBRANCH   1  29
BRANCH   3  30
ATOM     30  O   UNL     1     -47.757  -3.867 -30.149  0.00  0.00    +0.000 OA
ATOM     31  H   UNL     1     -47.538  -3.369 -30.911  0.00  0.00    +0.000 HD
ENDBRANCH   3  30
TORSDOF 2
ENDMDL
MODEL 2
REMARK VINA RESULT:      -6.6      2.490      4.814
REMARK  Name = ZINC000018200371
REMARK  2 active torsions:
REMARK  status: ('A' for Active; 'I' for Inactive)
REMARK    1  A    between atoms: C_1  and  C_31
REMARK    2  A    between atoms: C_3  and  O_4
REMARK                            x       y       z     vdW  Elec       q    Type
REMARK                         _______ _______ _______ _____ _____    ______ ____
ROOT
ATOM      1  C   UNL     1     -43.978  -6.553 -31.270  0.00  0.00    +0.000 C 
ATOM      2  C   UNL     1     -44.998  -7.053 -32.246  0.00  0.00    +0.000 A 
ATOM      3  C   UNL     1     -44.979  -7.251 -33.603  0.00  0.00    +0.000 A 
ATOM      4  N   UNL     1     -46.180  -7.711 -34.014  0.00  0.00    +0.000 NA
ATOM      5  N   UNL     1     -46.972  -7.814 -32.950  0.00  0.00    +0.000 N 
ATOM      6  C   UNL     1     -46.252  -7.414 -31.887  0.00  0.00    +0.000 A 
ATOM      7  N   UNL     1     -46.691  -7.378 -30.535  0.00  0.00    +0.000 N 
ATOM      8  C   UNL     1     -45.757  -6.990 -29.512  0.00  0.00    +0.000 C 
ATOM      9  C   UNL     1     -44.480  -6.611 -29.821  0.00  0.00    +0.000 C 
ATOM     10  C   UNL     1     -43.524  -6.311 -28.726  0.00  0.00    +0.000 C 
ATOM     11  O   UNL     1     -42.322  -6.038 -28.984  0.00  0.00    +0.000 OA
ATOM     12  C   UNL     1     -43.973  -6.298 -27.295  0.00  0.00    +0.000 C 
ATOM     13  C   UNL     1     -45.156  -7.235 -27.061  0.00  0.00    +0.000 C 
ATOM     14  C   UNL     1     -45.715  -6.970 -25.680  0.00  0.00    +0.000 C 
ATOM     15  C   UNL     1     -44.707  -8.687 -27.126  0.00  0.00    +0.000 C 
ATOM     16  C   UNL     1     -46.255  -6.968 -28.091  0.00  0.00    +0.000 C 
ATOM     17  H   UNL     1     -47.906  -8.122 -32.942  0.00  0.00    +0.000 HD
ATOM     18  H   UNL     1     -47.619  -7.613 -30.304  0.00  0.00    +0.000 HD
ENDROOT
BRANCH   1  29
ATOM     19  C   UNL     1     -41.168  -6.055 -32.313  0.00  0.00    +0.000 C 
ATOM     20  C   UNL     1     -42.160  -4.955 -32.143  0.00  0.00    +0.000 A 
ATOM     21  N   UNL     1     -41.785  -3.688 -32.463  0.00  0.00    +0.000 NA
ATOM     22  C   UNL     1     -42.637  -2.642 -32.326  0.00  0.00    +0.000 A 
ATOM     23  C   UNL     1     -42.234  -1.346 -32.661  0.00  0.00    +0.000 A 
ATOM     24  C   UNL     1     -43.127  -0.279 -32.513  0.00  0.00    +0.000 A 
ATOM     25  C   UNL     1     -44.421  -0.507 -32.030  0.00  0.00    +0.000 A 
ATOM     26  C   UNL     1     -44.828  -1.803 -31.694  0.00  0.00    +0.000 A 
ATOM     27  C   UNL     1     -43.939  -2.870 -31.842  0.00  0.00    +0.000 A 
ATOM     28  N   UNL     1     -44.317  -4.133 -31.520  0.00  0.00    +0.000 NA
ATOM     29  C   UNL     1     -43.468  -5.188 -31.658  0.00  0.00    +0.000 A 
ENDBRANCH   1  29
BRANCH   3  30
ATOM     30  O   UNL     1     -43.901  -7.018 -34.448  0.00  0.00    +0.000 OA
ATOM     31  H   UNL     1     -43.038  -6.936 -34.095  0.00  0.00    +0.000 HD
ENDBRANCH   3  30
TORSDOF 2
ENDMDL
MODEL 3
REMARK VINA RESULT:      -6.6     15.611     17.989
REMARK  Name = ZINC000018200371
REMARK  2 active torsions:
REMARK  status: ('A' for Active; 'I' for Inactive)
REMARK    1  A    between atoms: C_1  and  C_31
REMARK    2  A    between atoms: C_3  and  O_4
REMARK                            x       y       z     vdW  Elec       q    Type
REMARK                         _______ _______ _______ _____ _____    ______ ____
ROOT
ATOM      1  C   UNL     1     -43.144 -18.109 -20.236  0.00  0.00    +0.000 C 
ATOM      2  C   UNL     1     -43.157 -19.399 -19.477  0.00  0.00    +0.000 A 
ATOM      3  C   UNL     1     -42.251 -20.422 -19.352  0.00  0.00    +0.000 A 
ATOM      4  N   UNL     1     -42.756 -21.383 -18.549  0.00  0.00    +0.000 NA
ATOM      5  N   UNL     1     -43.968 -21.000 -18.154  0.00  0.00    +0.000 N 
ATOM      6  C   UNL     1     -44.203 -19.803 -18.719  0.00  0.00    +0.000 A 
ATOM      7  N   UNL     1     -45.370 -19.008 -18.557  0.00  0.00    +0.000 N 
ATOM      8  C   UNL     1     -45.418 -17.712 -19.181  0.00  0.00    +0.000 C 
ATOM      9  C   UNL     1     -44.392 -17.258 -19.961  0.00  0.00    +0.000 C 
ATOM     10  C   UNL     1     -44.445 -15.879 -20.506  0.00  0.00    +0.000 C 
ATOM     11  O   UNL     1     -43.474 -15.412 -21.159  0.00  0.00    +0.000 OA
ATOM     12  C   UNL     1     -45.661 -15.023 -20.315  0.00  0.00    +0.000 C 
ATOM     13  C   UNL     1     -46.419 -15.386 -19.040  0.00  0.00    +0.000 C 
ATOM     14  C   UNL     1     -47.756 -14.677 -19.054  0.00  0.00    +0.000 C 
ATOM     15  C   UNL     1     -45.647 -14.928 -17.812  0.00  0.00    +0.000 C 
ATOM     16  C   UNL     1     -46.668 -16.895 -18.983  0.00  0.00    +0.000 C 
ATOM     17  H   UNL     1     -44.576 -21.498 -17.563  0.00  0.00    +0.000 HD
ATOM     18  H   UNL     1     -46.131 -19.338 -18.027  0.00  0.00    +0.000 HD
ENDROOT
BRANCH   1  29
ATOM     19  C   UNL     1     -40.519 -17.463 -21.624  0.00  0.00    +0.000 C 
ATOM     20  C   UNL     1     -41.685 -18.037 -22.354  0.00  0.00    +0.000 A 
ATOM     21  N   UNL     1     -41.563 -18.273 -23.688  0.00  0.00    +0.000 NA
ATOM     22  C   UNL     1     -42.587 -18.788 -24.412  0.00  0.00    +0.000 A 
ATOM     23  C   UNL     1     -42.443 -19.024 -25.782  0.00  0.00    +0.000 A 
ATOM     24  C   UNL     1     -43.511 -19.556 -26.513  0.00  0.00    +0.000 A 
ATOM     25  C   UNL     1     -44.721 -19.852 -25.876  0.00  0.00    +0.000 A 
ATOM     26  C   UNL     1     -44.869 -19.617 -24.504  0.00  0.00    +0.000 A 
ATOM     27  C   UNL     1     -43.804 -19.087 -23.772  0.00  0.00    +0.000 A 
ATOM     28  N   UNL     1     -43.931 -18.852 -22.441  0.00  0.00    +0.000 NA
ATOM     29  C   UNL     1     -42.907 -18.338 -21.707  0.00  0.00    +0.000 A 
ENDBRANCH   1  29
BRANCH   3  30
ATOM     30  O   UNL     1     -41.000 -20.484 -19.952  0.00  0.00    +0.000 OA
ATOM     31  H   UNL     1     -40.877 -20.145 -20.816  0.00  0.00    +0.000 HD
ENDBRANCH   3  30
TORSDOF 2
ENDMDL
