MODEL 1
REMARK VINA RESULT:      -7.4      0.000      0.000
REMARK  Name = ZINC000100261004
REMARK  3 active torsions:
REMARK  status: ('A' for Active; 'I' for Inactive)
REMARK    1  A    between atoms: C_1  and  C_13
REMARK    2  A    between atoms: C_7  and  C_23
REMARK    3  A    between atoms: C_14  and  O_15
REMARK                            x       y       z     vdW  Elec       q    Type
REMARK                         _______ _______ _______ _____ _____    ______ ____
ROOT
ATOM      1  C   UNL     1     -45.635  -7.075 -33.968  0.00  0.00    +0.000 C 
ATOM      2  N   UNL     1     -45.208  -8.053 -34.708  0.00  0.00    +0.000 NA
ATOM      3  N   UNL     1     -45.639  -7.914 -36.034  0.00  0.00    +0.000 N 
ATOM      4  C   UNL     1     -46.428  -6.739 -36.075  0.00  0.00    +0.000 C 
ATOM      5  O   UNL     1     -46.994  -6.301 -37.110  0.00  0.00    +0.000 OA
ATOM      6  C   UNL     1     -46.438  -6.125 -34.764  0.00  0.00    +0.000 C 
ATOM      7  C   UNL     1     -46.999  -4.948 -34.463  0.00  0.00    +0.000 C 
ATOM      8  H   UNL     1     -45.435  -8.513 -36.788  0.00  0.00    +0.000 HD
ENDROOT
BRANCH   1  13
ATOM      9  C   UNL     1     -47.369  -8.187 -29.468  0.00  0.00    +0.000 C 
ATOM     10  N   UNL     1     -46.307  -7.628 -30.303  0.00  0.00    +0.000 N 
ATOM     11  C   UNL     1     -46.459  -7.641 -31.664  0.00  0.00    +0.000 A 
ATOM     12  O   UNL     1     -47.492  -8.157 -32.178  0.00  0.00    +0.000 OA
ATOM     13  C   UNL     1     -45.468  -7.089 -32.500  0.00  0.00    +0.000 A 
ATOM     14  C   UNL     1     -44.301  -6.567 -31.925  0.00  0.00    +0.000 A 
ATOM     15  C   UNL     1     -44.151  -6.567 -30.535  0.00  0.00    +0.000 A 
ATOM     16  C   UNL     1     -42.998  -6.034 -29.942  0.00  0.00    +0.000 A 
ATOM     17  C   UNL     1     -42.857  -6.027 -28.553  0.00  0.00    +0.000 A 
ATOM     18  C   UNL     1     -43.867  -6.552 -27.746  0.00  0.00    +0.000 A 
ATOM     19  C   UNL     1     -45.020  -7.085 -28.326  0.00  0.00    +0.000 A 
ATOM     20  C   UNL     1     -45.180  -7.102 -29.724  0.00  0.00    +0.000 A 
BRANCH  14  21
ATOM     21  O   UNL     1     -43.299  -6.034 -32.735  0.00  0.00    +0.000 OA
ATOM     22  H   UNL     1     -43.026  -6.493 -33.505  0.00  0.00    +0.000 HD
ENDBRANCH  14  21
ENDBRANCH   1  13
BRANCH   7  23
ATOM     23  C   UNL     1     -46.839  -4.206 -33.203  0.00  0.00    +0.000 A 
ATOM     24  C   UNL     1     -47.448  -4.469 -31.978  0.00  0.00    +0.000 A 
ATOM     25  N   UNL     1     -46.976  -3.629 -31.023  0.00  0.00    +0.000 N 
ATOM     26  C   UNL     1     -46.063  -2.863 -31.646  0.00  0.00    +0.000 A 
ATOM     27  C   UNL     1     -45.292  -1.854 -31.072  0.00  0.00    +0.000 A 
ATOM     28  C   UNL     1     -44.376  -1.180 -31.901  0.00  0.00    +0.000 A 
ATOM     29  C   UNL     1     -44.251  -1.528 -33.264  0.00  0.00    +0.000 A 
ATOM     30  C   UNL     1     -45.041  -2.551 -33.815  0.00  0.00    +0.000 A 
ATOM     31  C   UNL     1     -45.940  -3.196 -32.967  0.00  0.00    +0.000 A 
ATOM     32  H   UNL     1     -47.246  -3.587 -30.077  0.00  0.00    +0.000 HD
ENDBRANCH   7  23
TORSDOF 3
ENDMDL
MODEL 2
REMARK VINA RESULT:      -7.2     12.067     15.805
REMARK  Name = ZINC000100261004
REMARK  3 active torsions:
REMARK  status: ('A' for Active; 'I' for Inactive)
REMARK    1  A    between atoms: C_1  and  C_13
REMARK    2  A    between atoms: C_7  and  C_23
REMARK    3  A    between atoms: C_14  and  O_15
REMARK                            x       y       z     vdW  Elec       q    Type
REMARK                         _______ _______ _______ _____ _____    ______ ____
ROOT
ATOM      1  C   UNL     1     -45.269 -15.464 -21.190  0.00  0.00    +0.000 C 
ATOM      2  N   UNL     1     -45.631 -14.333 -20.664  0.00  0.00    +0.000 NA
ATOM      3  N   UNL     1     -46.456 -14.532 -19.549  0.00  0.00    +0.000 N 
ATOM      4  C   UNL     1     -46.619 -15.932 -19.418  0.00  0.00    +0.000 C 
ATOM      5  O   UNL     1     -47.311 -16.485 -18.524  0.00  0.00    +0.000 OA
ATOM      6  C   UNL     1     -45.842 -16.600 -20.440  0.00  0.00    +0.000 C 
ATOM      7  C   UNL     1     -45.679 -17.924 -20.551  0.00  0.00    +0.000 C 
ATOM      8  H   UNL     1     -46.846 -13.837 -18.971  0.00  0.00    +0.000 HD
ENDROOT
BRANCH   1  13
ATOM      9  C   UNL     1     -41.043 -15.953 -23.720  0.00  0.00    +0.000 C 
ATOM     10  N   UNL     1     -42.493 -15.755 -23.719  0.00  0.00    +0.000 N 
ATOM     11  C   UNL     1     -43.156 -15.731 -22.521  0.00  0.00    +0.000 A 
ATOM     12  O   UNL     1     -42.519 -15.906 -21.444  0.00  0.00    +0.000 OA
ATOM     13  C   UNL     1     -44.549 -15.519 -22.479  0.00  0.00    +0.000 A 
ATOM     14  C   UNL     1     -45.256 -15.380 -23.681  0.00  0.00    +0.000 A 
ATOM     15  C   UNL     1     -44.570 -15.415 -24.899  0.00  0.00    +0.000 A 
ATOM     16  C   UNL     1     -45.260 -15.261 -26.110  0.00  0.00    +0.000 A 
ATOM     17  C   UNL     1     -44.569 -15.288 -27.323  0.00  0.00    +0.000 A 
ATOM     18  C   UNL     1     -43.186 -15.468 -27.336  0.00  0.00    +0.000 A 
ATOM     19  C   UNL     1     -42.489 -15.623 -26.136  0.00  0.00    +0.000 A 
ATOM     20  C   UNL     1     -43.167 -15.600 -24.902  0.00  0.00    +0.000 A 
BRANCH  14  21
ATOM     21  O   UNL     1     -46.637 -15.189 -23.663  0.00  0.00    +0.000 OA
ATOM     22  H   UNL     1     -46.989 -14.348 -23.444  0.00  0.00    +0.000 HD
ENDBRANCH  14  21
ENDBRANCH   1  13
BRANCH   7  23
ATOM     23  C   UNL     1     -44.730 -18.613 -21.439  0.00  0.00    +0.000 A 
ATOM     24  C   UNL     1     -43.516 -19.202 -21.092  0.00  0.00    +0.000 A 
ATOM     25  N   UNL     1     -42.969 -19.828 -22.164  0.00  0.00    +0.000 N 
ATOM     26  C   UNL     1     -43.849 -19.648 -23.165  0.00  0.00    +0.000 A 
ATOM     27  C   UNL     1     -43.734 -20.123 -24.470  0.00  0.00    +0.000 A 
ATOM     28  C   UNL     1     -44.782 -19.836 -25.364  0.00  0.00    +0.000 A 
ATOM     29  C   UNL     1     -45.906 -19.095 -24.940  0.00  0.00    +0.000 A 
ATOM     30  C   UNL     1     -45.995 -18.630 -23.616  0.00  0.00    +0.000 A 
ATOM     31  C   UNL     1     -44.940 -18.929 -22.757  0.00  0.00    +0.000 A 
ATOM     32  H   UNL     1     -42.111 -20.309 -22.202  0.00  0.00    +0.000 HD
ENDBRANCH   7  23
TORSDOF 3
ENDMDL
MODEL 3
REMARK VINA RESULT:      -7.0     13.127     16.388
REMARK  Name = ZINC000100261004
REMARK  3 active torsions:
REMARK  status: ('A' for Active; 'I' for Inactive)
REMARK    1  A    between atoms: C_1  and  C_13
REMARK    2  A    between atoms: C_7  and  C_23
REMARK    3  A    between atoms: C_14  and  O_15
REMARK                            x       y       z     vdW  Elec       q    Type
REMARK                         _______ _______ _______ _____ _____    ______ ____
ROOT
ATOM      1  C   UNL     1     -42.710 -19.471 -21.700  0.00  0.00    +0.000 C 
ATOM      2  N   UNL     1     -41.777 -19.899 -20.905  0.00  0.00    +0.000 NA
ATOM      3  N   UNL     1     -41.223 -21.099 -21.370  0.00  0.00    +0.000 N 
ATOM      4  C   UNL     1     -41.923 -21.428 -22.555  0.00  0.00    +0.000 C 
ATOM      5  O   UNL     1     -41.701 -22.455 -23.248  0.00  0.00    +0.000 OA
ATOM      6  C   UNL     1     -42.887 -20.388 -22.844  0.00  0.00    +0.000 C 
ATOM      7  C   UNL     1     -43.650 -20.319 -23.942  0.00  0.00    +0.000 C 
ATOM      8  H   UNL     1     -40.492 -21.613 -20.955  0.00  0.00    +0.000 HD
ENDROOT
BRANCH   1  13
ATOM      9  C   UNL     1     -43.810 -14.658 -22.052  0.00  0.00    +0.000 C 
ATOM     10  N   UNL     1     -44.110 -15.980 -21.500  0.00  0.00    +0.000 N 
ATOM     11  C   UNL     1     -43.325 -17.042 -21.864  0.00  0.00    +0.000 A 
ATOM     12  O   UNL     1     -42.379 -16.874 -22.685  0.00  0.00    +0.000 OA
ATOM     13  C   UNL     1     -43.568 -18.325 -21.335  0.00  0.00    +0.000 A 
ATOM     14  C   UNL     1     -44.652 -18.513 -20.467  0.00  0.00    +0.000 A 
ATOM     15  C   UNL     1     -45.453 -17.424 -20.109  0.00  0.00    +0.000 A 
ATOM     16  C   UNL     1     -46.532 -17.591 -19.229  0.00  0.00    +0.000 A 
ATOM     17  C   UNL     1     -47.323 -16.499 -18.868  0.00  0.00    +0.000 A 
ATOM     18  C   UNL     1     -47.042 -15.232 -19.381  0.00  0.00    +0.000 A 
ATOM     19  C   UNL     1     -45.971 -15.055 -20.259  0.00  0.00    +0.000 A 
ATOM     20  C   UNL     1     -45.162 -16.144 -20.636  0.00  0.00    +0.000 A 
BRANCH  14  21
ATOM     21  O   UNL     1     -44.922 -19.778 -19.947  0.00  0.00    +0.000 OA
ATOM     22  H   UNL     1     -44.969 -20.519 -20.519  0.00  0.00    +0.000 HD
ENDBRANCH  14  21
ENDBRANCH   1  13
BRANCH   7  23
ATOM     23  C   UNL     1     -44.471 -19.172 -24.360  0.00  0.00    +0.000 A 
ATOM     24  C   UNL     1     -45.721 -18.799 -23.871  0.00  0.00    +0.000 A 
ATOM     25  N   UNL     1     -46.119 -17.629 -24.430  0.00  0.00    +0.000 N 
ATOM     26  C   UNL     1     -45.112 -17.266 -25.244  0.00  0.00    +0.000 A 
ATOM     27  C   UNL     1     -45.050 -16.117 -26.032  0.00  0.00    +0.000 A 
ATOM     28  C   UNL     1     -43.892 -15.916 -26.804  0.00  0.00    +0.000 A 
ATOM     29  C   UNL     1     -42.835 -16.852 -26.770  0.00  0.00    +0.000 A 
ATOM     30  C   UNL     1     -42.924 -18.001 -25.965  0.00  0.00    +0.000 A 
ATOM     31  C   UNL     1     -44.086 -18.171 -25.215  0.00  0.00    +0.000 A 
ATOM     32  H   UNL     1     -46.964 -17.148 -24.274  0.00  0.00    +0.000 HD
ENDBRANCH   7  23
TORSDOF 3
ENDMDL
