MODEL 1
REMARK VINA RESULT:      -8.4      0.000      0.000
REMARK  Name = ZINC000113940140 CSC048854728
REMARK  3 active torsions:
REMARK  status: ('A' for Active; 'I' for Inactive)
REMARK    1  A    between atoms: C_2  and  C_5
REMARK    2  A    between atoms: N_3  and  C_18
REMARK    3  A    between atoms: C_23  and  C_24
REMARK                            x       y       z     vdW  Elec       q    Type
REMARK                         _______ _______ _______ _____ _____    ______ ____
ROOT
ATOM      1  O   UNL     1     -47.756  -4.606 -30.147  0.00  0.00    +0.000 OA
ATOM      2  C   UNL     1     -47.199  -5.151 -29.156  0.00  0.00    +0.000 C 
ATOM      3  N   UNL     1     -46.539  -6.416 -29.282  0.00  0.00    +0.000 N 
ATOM      4  H   UNL     1     -46.159  -6.793 -28.456  0.00  0.00    +0.000 HD
ENDROOT
BRANCH   2   5
ATOM      5  C   UNL     1     -47.210  -4.483 -27.851  0.00  0.00    +0.000 A 
ATOM      6  C   UNL     1     -47.002  -5.117 -26.624  0.00  0.00    +0.000 A 
ATOM      7  C   UNL     1     -47.119  -4.077 -25.721  0.00  0.00    +0.000 A 
ATOM      8  C   UNL     1     -47.379  -2.932 -26.426  0.00  0.00    +0.000 A 
ATOM      9  O   UNL     1     -47.429  -3.190 -27.704  0.00  0.00    +0.000 OA
ATOM     10  C   UNL     1     -47.554  -1.698 -25.803  0.00  0.00    +0.000 A 
ATOM     11  C   UNL     1     -47.457  -1.650 -24.401  0.00  0.00    +0.000 A 
ATOM     12  C   UNL     1     -47.189  -2.821 -23.661  0.00  0.00    +0.000 A 
ATOM     13  C   UNL     1     -47.094  -2.765 -22.269  0.00  0.00    +0.000 A 
ATOM     14  C   UNL     1     -46.828  -3.928 -21.538  0.00  0.00    +0.000 A 
ATOM     15  C   UNL     1     -46.657  -5.152 -22.195  0.00  0.00    +0.000 A 
ATOM     16  C   UNL     1     -46.750  -5.223 -23.588  0.00  0.00    +0.000 A 
ATOM     17  C   UNL     1     -47.015  -4.065 -24.327  0.00  0.00    +0.000 A 
ENDBRANCH   2   5
BRANCH   3  18
ATOM     18  C   UNL     1     -46.367  -7.199 -30.474  0.00  0.00    +0.000 A 
ATOM     19  C   UNL     1     -47.120  -8.363 -30.687  0.00  0.00    +0.000 A 
ATOM     20  C   UNL     1     -46.911  -9.153 -31.819  0.00  0.00    +0.000 A 
ATOM     21  C   UNL     1     -45.937  -8.791 -32.748  0.00  0.00    +0.000 A 
ATOM     22  C   UNL     1     -45.179  -7.635 -32.551  0.00  0.00    +0.000 A 
ATOM     23  C   UNL     1     -45.394  -6.822 -31.428  0.00  0.00    +0.000 A 
BRANCH  23  24
ATOM     24  C   UNL     1     -44.562  -5.607 -31.265  0.00  0.00    +0.000 C 
ATOM     25  O   UNL     1     -43.528  -5.668 -30.546  0.00  0.00    +0.000 OA
ATOM     26  N   UNL     1     -44.900  -4.373 -31.917  0.00  0.00    +0.000 N 
ATOM     27  C   UNL     1     -44.340  -3.116 -31.422  0.00  0.00    +0.000 C 
ATOM     28  C   UNL     1     -45.262  -1.963 -31.818  0.00  0.00    +0.000 C 
ATOM     29  O   UNL     1     -45.484  -1.985 -33.208  0.00  0.00    +0.000 OA
ATOM     30  C   UNL     1     -46.298  -3.103 -33.464  0.00  0.00    +0.000 C 
ATOM     31  C   UNL     1     -45.499  -4.388 -33.253  0.00  0.00    +0.000 C 
ENDBRANCH  23  24
ENDBRANCH   3  18
TORSDOF 3
ENDMDL
MODEL 2
REMARK VINA RESULT:      -8.1      1.121      2.140
REMARK  Name = ZINC000113940140 CSC048854728
REMARK  3 active torsions:
REMARK  status: ('A' for Active; 'I' for Inactive)
REMARK    1  A    between atoms: C_2  and  C_5
REMARK    2  A    between atoms: N_3  and  C_18
REMARK    3  A    between atoms: C_23  and  C_24
REMARK                            x       y       z     vdW  Elec       q    Type
REMARK                         _______ _______ _______ _____ _____    ______ ____
ROOT
ATOM      1  O   UNL     1     -47.685  -5.355 -30.839  0.00  0.00    +0.000 OA
ATOM      2  C   UNL     1     -46.970  -5.990 -30.019  0.00  0.00    +0.000 C 
ATOM      3  N   UNL     1     -46.142  -7.078 -30.446  0.00  0.00    +0.000 N 
ATOM      4  H   UNL     1     -45.640  -7.547 -29.741  0.00  0.00    +0.000 HD
ENDROOT
BRANCH   2   5
ATOM      5  C   UNL     1     -46.968  -5.612 -28.602  0.00  0.00    +0.000 A 
ATOM      6  C   UNL     1     -47.252  -4.335 -28.112  0.00  0.00    +0.000 A 
ATOM      7  C   UNL     1     -47.111  -4.495 -26.746  0.00  0.00    +0.000 A 
ATOM      8  C   UNL     1     -46.765  -5.799 -26.507  0.00  0.00    +0.000 A 
ATOM      9  O   UNL     1     -46.685  -6.459 -27.630  0.00  0.00    +0.000 OA
ATOM     10  C   UNL     1     -46.545  -6.287 -25.220  0.00  0.00    +0.000 A 
ATOM     11  C   UNL     1     -46.689  -5.392 -24.146  0.00  0.00    +0.000 A 
ATOM     12  C   UNL     1     -47.044  -4.046 -24.376  0.00  0.00    +0.000 A 
ATOM     13  C   UNL     1     -47.184  -3.163 -23.303  0.00  0.00    +0.000 A 
ATOM     14  C   UNL     1     -47.537  -1.829 -23.535  0.00  0.00    +0.000 A 
ATOM     15  C   UNL     1     -47.751  -1.371 -24.840  0.00  0.00    +0.000 A 
ATOM     16  C   UNL     1     -47.614  -2.244 -25.925  0.00  0.00    +0.000 A 
ATOM     17  C   UNL     1     -47.261  -3.580 -25.701  0.00  0.00    +0.000 A 
ENDBRANCH   2   5
BRANCH   3  18
ATOM     18  C   UNL     1     -45.957  -7.564 -31.786  0.00  0.00    +0.000 A 
ATOM     19  C   UNL     1     -46.688  -8.664 -32.260  0.00  0.00    +0.000 A 
ATOM     20  C   UNL     1     -46.466  -9.169 -33.542  0.00  0.00    +0.000 A 
ATOM     21  C   UNL     1     -45.502  -8.585 -34.363  0.00  0.00    +0.000 A 
ATOM     22  C   UNL     1     -44.767  -7.489 -33.905  0.00  0.00    +0.000 A 
ATOM     23  C   UNL     1     -44.995  -6.959 -32.627  0.00  0.00    +0.000 A 
BRANCH  23  24
ATOM     24  C   UNL     1     -44.188  -5.797 -32.189  0.00  0.00    +0.000 C 
ATOM     25  O   UNL     1     -43.084  -6.002 -31.613  0.00  0.00    +0.000 OA
ATOM     26  N   UNL     1     -44.627  -4.449 -32.417  0.00  0.00    +0.000 N 
ATOM     27  C   UNL     1     -44.058  -3.358 -31.627  0.00  0.00    +0.000 C 
ATOM     28  C   UNL     1     -45.049  -2.195 -31.585  0.00  0.00    +0.000 C 
ATOM     29  O   UNL     1     -45.410  -1.828 -32.895  0.00  0.00    +0.000 OA
ATOM     30  C   UNL     1     -46.212  -2.869 -33.395  0.00  0.00    +0.000 C 
ATOM     31  C   UNL     1     -45.357  -4.112 -33.641  0.00  0.00    +0.000 C 
ENDBRANCH  23  24
ENDBRANCH   3  18
TORSDOF 3
ENDMDL
MODEL 3
REMARK VINA RESULT:      -7.6      1.672      2.299
REMARK  Name = ZINC000113940140 CSC048854728
REMARK  3 active torsions:
REMARK  status: ('A' for Active; 'I' for Inactive)
REMARK    1  A    between atoms: C_2  and  C_5
REMARK    2  A    between atoms: N_3  and  C_18
REMARK    3  A    between atoms: C_23  and  C_24
REMARK                            x       y       z     vdW  Elec       q    Type
REMARK                         _______ _______ _______ _____ _____    ______ ____
ROOT
ATOM      1  O   UNL     1     -44.834  -6.866 -30.004  0.00  0.00    +0.000 OA
ATOM      2  C   UNL     1     -45.907  -6.210 -29.921  0.00  0.00    +0.000 C 
ATOM      3  N   UNL     1     -46.783  -6.081 -31.046  0.00  0.00    +0.000 N 
ATOM      4  H   UNL     1     -47.584  -5.523 -30.913  0.00  0.00    +0.000 HD
ENDROOT
BRANCH   2   5
ATOM      5  C   UNL     1     -46.280  -5.574 -28.654  0.00  0.00    +0.000 A 
ATOM      6  C   UNL     1     -46.093  -6.134 -27.389  0.00  0.00    +0.000 A 
ATOM      7  C   UNL     1     -46.607  -5.165 -26.548  0.00  0.00    +0.000 A 
ATOM      8  C   UNL     1     -47.054  -4.127 -27.322  0.00  0.00    +0.000 A 
ATOM      9  O   UNL     1     -46.850  -4.385 -28.585  0.00  0.00    +0.000 OA
ATOM     10  C   UNL     1     -47.635  -2.985 -26.774  0.00  0.00    +0.000 A 
ATOM     11  C   UNL     1     -47.756  -2.918 -25.375  0.00  0.00    +0.000 A 
ATOM     12  C   UNL     1     -47.300  -3.978 -24.563  0.00  0.00    +0.000 A 
ATOM     13  C   UNL     1     -47.425  -3.904 -23.174  0.00  0.00    +0.000 A 
ATOM     14  C   UNL     1     -46.972  -4.958 -22.373  0.00  0.00    +0.000 A 
ATOM     15  C   UNL     1     -46.393  -6.091 -22.956  0.00  0.00    +0.000 A 
ATOM     16  C   UNL     1     -46.262  -6.179 -24.346  0.00  0.00    +0.000 A 
ATOM     17  C   UNL     1     -46.713  -5.130 -25.155  0.00  0.00    +0.000 A 
ENDBRANCH   2   5
BRANCH   3  18
ATOM     18  C   UNL     1     -46.631  -6.671 -32.348  0.00  0.00    +0.000 A 
ATOM     19  C   UNL     1     -46.798  -8.050 -32.537  0.00  0.00    +0.000 A 
ATOM     20  C   UNL     1     -46.594  -8.629 -33.791  0.00  0.00    +0.000 A 
ATOM     21  C   UNL     1     -46.211  -7.833 -34.870  0.00  0.00    +0.000 A 
ATOM     22  C   UNL     1     -46.042  -6.458 -34.697  0.00  0.00    +0.000 A 
ATOM     23  C   UNL     1     -46.264  -5.861 -33.447  0.00  0.00    +0.000 A 
BRANCH  23  24
ATOM     24  C   UNL     1     -46.068  -4.399 -33.318  0.00  0.00    +0.000 C 
ATOM     25  O   UNL     1     -47.080  -3.645 -33.320  0.00  0.00    +0.000 OA
ATOM     26  N   UNL     1     -44.759  -3.826 -33.178  0.00  0.00    +0.000 N 
ATOM     27  C   UNL     1     -44.552  -2.410 -33.477  0.00  0.00    +0.000 C 
ATOM     28  C   UNL     1     -43.088  -2.183 -33.855  0.00  0.00    +0.000 C 
ATOM     29  O   UNL     1     -42.250  -2.684 -32.843  0.00  0.00    +0.000 OA
ATOM     30  C   UNL     1     -42.347  -4.086 -32.902  0.00  0.00    +0.000 C 
ATOM     31  C   UNL     1     -43.726  -4.534 -32.419  0.00  0.00    +0.000 C 
ENDBRANCH  23  24
ENDBRANCH   3  18
TORSDOF 3
ENDMDL
