MODEL 1
REMARK VINA RESULT:      -6.5      0.000      0.000
REMARK  Name = ZINC000065283276 ZINC65283276 ChemDiv-T480-0419 MolPort-010-948-687 PubChem-53190182
REMARK  2 active torsions:
REMARK  status: ('A' for Active; 'I' for Inactive)
REMARK    1  A    between atoms: C_8  and  C_17
REMARK    2  A    between atoms: N_19  and  C_21
REMARK                            x       y       z     vdW  Elec       q    Type
REMARK                         _______ _______ _______ _____ _____    ______ ____
ROOT
ATOM      1  C   UNL     1     -43.141 -18.559 -18.747  0.00  0.00    +0.000 C 
ATOM      2  C   UNL     1     -42.794 -19.233 -20.029  0.00  0.00    +0.000 A 
ATOM      3  C   UNL     1     -43.453 -19.147 -21.253  0.00  0.00    +0.000 A 
ATOM      4  C   UNL     1     -42.875 -19.955 -22.242  0.00  0.00    +0.000 A 
ATOM      5  C   UNL     1     -41.760 -20.688 -21.851  0.00  0.00    +0.000 A 
ATOM      6  S   UNL     1     -41.515 -20.305 -20.225  0.00  0.00    +0.000 S 
ATOM      7  N   UNL     1     -43.400 -20.007 -23.489  0.00  0.00    +0.000 NA
ATOM      8  C   UNL     1     -44.498 -19.262 -23.802  0.00  0.00    +0.000 A 
ATOM      9  N   UNL     1     -45.081 -18.475 -22.851  0.00  0.00    +0.000 NA
ATOM     10  C   UNL     1     -44.586 -18.389 -21.586  0.00  0.00    +0.000 A 
ATOM     11  N   UNL     1     -45.225 -17.531 -20.641  0.00  0.00    +0.000 N 
ATOM     12  C   UNL     1     -46.296 -18.085 -19.807  0.00  0.00    +0.000 C 
ATOM     13  C   UNL     1     -47.040 -16.982 -19.055  0.00  0.00    +0.000 C 
ATOM     14  O   UNL     1     -46.127 -16.049 -18.548  0.00  0.00    +0.000 OA
ATOM     15  C   UNL     1     -45.703 -15.312 -19.662  0.00  0.00    +0.000 C 
ATOM     16  C   UNL     1     -44.748 -16.150 -20.509  0.00  0.00    +0.000 C 
ENDROOT
BRANCH   8  17
ATOM     17  C   UNL     1     -45.083 -19.329 -25.154  0.00  0.00    +0.000 C 
ATOM     18  O   UNL     1     -45.882 -20.262 -25.431  0.00  0.00    +0.000 OA
ATOM     19  N   UNL     1     -44.725 -18.398 -26.185  0.00  0.00    +0.000 N 
ATOM     20  H   UNL     1     -44.663 -18.749 -27.103  0.00  0.00    +0.000 HD
BRANCH  19  21
ATOM     21  C   UNL     1     -44.451 -17.004 -26.001  0.00  0.00    +0.000 A 
ATOM     22  C   UNL     1     -43.130 -16.552 -26.099  0.00  0.00    +0.000 A 
ATOM     23  C   UNL     1     -42.833 -15.192 -25.961  0.00  0.00    +0.000 A 
ATOM     24  C   UNL     1     -43.863 -14.278 -25.730  0.00  0.00    +0.000 A 
ATOM     25  O   UNL     1     -43.595 -12.911 -25.609  0.00  0.00    +0.000 OA
ATOM     26  C   UNL     1     -44.651 -11.950 -25.664  0.00  0.00    +0.000 C 
ATOM     27  C   UNL     1     -45.881 -12.472 -24.919  0.00  0.00    +0.000 C 
ATOM     28  O   UNL     1     -46.198 -13.796 -25.355  0.00  0.00    +0.000 OA
ATOM     29  C   UNL     1     -45.187 -14.724 -25.621  0.00  0.00    +0.000 A 
ATOM     30  C   UNL     1     -45.483 -16.079 -25.774  0.00  0.00    +0.000 A 
ENDBRANCH  19  21
ENDBRANCH   8  17
TORSDOF 2
ENDMDL
MODEL 2
REMARK VINA RESULT:      -6.3      2.644      6.771
REMARK  Name = ZINC000065283276 ZINC65283276 ChemDiv-T480-0419 MolPort-010-948-687 PubChem-53190182
REMARK  2 active torsions:
REMARK  status: ('A' for Active; 'I' for Inactive)
REMARK    1  A    between atoms: C_8  and  C_17
REMARK    2  A    between atoms: N_19  and  C_21
REMARK                            x       y       z     vdW  Elec       q    Type
REMARK                         _______ _______ _______ _____ _____    ______ ____
ROOT
ATOM      1  C   UNL     1     -42.979 -12.407 -26.584  0.00  0.00    +0.000 C 
ATOM      2  C   UNL     1     -42.487 -13.688 -26.005  0.00  0.00    +0.000 A 
ATOM      3  C   UNL     1     -43.054 -14.955 -26.113  0.00  0.00    +0.000 A 
ATOM      4  C   UNL     1     -42.345 -15.932 -25.400  0.00  0.00    +0.000 A 
ATOM      5  C   UNL     1     -41.213 -15.489 -24.725  0.00  0.00    +0.000 A 
ATOM      6  S   UNL     1     -41.122 -13.832 -25.035  0.00  0.00    +0.000 S 
ATOM      7  N   UNL     1     -42.767 -17.219 -25.380  0.00  0.00    +0.000 NA
ATOM      8  C   UNL     1     -43.887 -17.583 -26.064  0.00  0.00    +0.000 A 
ATOM      9  N   UNL     1     -44.598 -16.645 -26.757  0.00  0.00    +0.000 NA
ATOM     10  C   UNL     1     -44.210 -15.341 -26.808  0.00  0.00    +0.000 A 
ATOM     11  N   UNL     1     -44.980 -14.411 -27.568  0.00  0.00    +0.000 N 
ATOM     12  C   UNL     1     -46.069 -13.694 -26.899  0.00  0.00    +0.000 C 
ATOM     13  C   UNL     1     -46.946 -12.952 -27.906  0.00  0.00    +0.000 C 
ATOM     14  O   UNL     1     -46.144 -12.328 -28.871  0.00  0.00    +0.000 OA
ATOM     15  C   UNL     1     -45.691 -13.367 -29.694  0.00  0.00    +0.000 C 
ATOM     16  C   UNL     1     -44.615 -14.174 -28.970  0.00  0.00    +0.000 C 
ENDROOT
BRANCH   8  17
ATOM     17  C   UNL     1     -44.361 -18.980 -26.030  0.00  0.00    +0.000 C 
ATOM     18  O   UNL     1     -44.243 -19.692 -27.061  0.00  0.00    +0.000 OA
ATOM     19  N   UNL     1     -45.007 -19.536 -24.877  0.00  0.00    +0.000 N 
ATOM     20  H   UNL     1     -45.742 -20.170 -25.038  0.00  0.00    +0.000 HD
BRANCH  19  21
ATOM     21  C   UNL     1     -44.677 -19.254 -23.511  0.00  0.00    +0.000 A 
ATOM     22  C   UNL     1     -43.528 -19.830 -22.957  0.00  0.00    +0.000 A 
ATOM     23  C   UNL     1     -43.159 -19.547 -21.638  0.00  0.00    +0.000 A 
ATOM     24  C   UNL     1     -43.937 -18.677 -20.871  0.00  0.00    +0.000 A 
ATOM     25  O   UNL     1     -43.577 -18.362 -19.557  0.00  0.00    +0.000 OA
ATOM     26  C   UNL     1     -44.191 -17.268 -18.872  0.00  0.00    +0.000 C 
ATOM     27  C   UNL     1     -45.684 -17.206 -19.204  0.00  0.00    +0.000 C 
ATOM     28  O   UNL     1     -45.877 -17.265 -20.619  0.00  0.00    +0.000 OA
ATOM     29  C   UNL     1     -45.094 -18.105 -21.415  0.00  0.00    +0.000 A 
ATOM     30  C   UNL     1     -45.453 -18.376 -22.737  0.00  0.00    +0.000 A 
ENDBRANCH  19  21
ENDBRANCH   8  17
TORSDOF 2
ENDMDL
MODEL 3
REMARK VINA RESULT:      -6.1      6.362      9.672
REMARK  Name = ZINC000065283276 ZINC65283276 ChemDiv-T480-0419 MolPort-010-948-687 PubChem-53190182
REMARK  2 active torsions:
REMARK  status: ('A' for Active; 'I' for Inactive)
REMARK    1  A    between atoms: C_8  and  C_17
REMARK    2  A    between atoms: N_19  and  C_21
REMARK                            x       y       z     vdW  Elec       q    Type
REMARK                         _______ _______ _______ _____ _____    ______ ____
ROOT
ATOM      1  C   UNL     1     -43.464  -7.087 -24.387  0.00  0.00    +0.000 C 
ATOM      2  C   UNL     1     -43.287  -7.643 -25.757  0.00  0.00    +0.000 A 
ATOM      3  C   UNL     1     -44.266  -8.105 -26.633  0.00  0.00    +0.000 A 
ATOM      4  C   UNL     1     -43.736  -8.603 -27.831  0.00  0.00    +0.000 A 
ATOM      5  C   UNL     1     -42.352  -8.549 -27.950  0.00  0.00    +0.000 A 
ATOM      6  S   UNL     1     -41.801  -7.865 -26.509  0.00  0.00    +0.000 S 
ATOM      7  N   UNL     1     -44.547  -9.111 -28.790  0.00  0.00    +0.000 NA
ATOM      8  C   UNL     1     -45.897  -9.134 -28.604  0.00  0.00    +0.000 A 
ATOM      9  N   UNL     1     -46.433  -8.661 -27.440  0.00  0.00    +0.000 NA
ATOM     10  C   UNL     1     -45.657  -8.140 -26.450  0.00  0.00    +0.000 A 
ATOM     11  N   UNL     1     -46.277  -7.639 -25.266  0.00  0.00    +0.000 N 
ATOM     12  C   UNL     1     -46.478  -8.558 -24.142  0.00  0.00    +0.000 C 
ATOM     13  C   UNL     1     -47.380  -7.939 -23.075  0.00  0.00    +0.000 C 
ATOM     14  O   UNL     1     -47.030  -6.599 -22.870  0.00  0.00    +0.000 OA
ATOM     15  C   UNL     1     -47.517  -5.920 -23.995  0.00  0.00    +0.000 C 
ATOM     16  C   UNL     1     -46.636  -6.218 -25.206  0.00  0.00    +0.000 C 
ENDROOT
BRANCH   8  17
ATOM     17  C   UNL     1     -46.782  -9.702 -29.638  0.00  0.00    +0.000 C 
ATOM     18  O   UNL     1     -47.088  -8.999 -30.636  0.00  0.00    +0.000 OA
ATOM     19  N   UNL     1     -47.356 -11.010 -29.512  0.00  0.00    +0.000 N 
ATOM     20  H   UNL     1     -48.273 -11.131 -29.849  0.00  0.00    +0.000 HD
BRANCH  19  21
ATOM     21  C   UNL     1     -46.714 -12.159 -28.944  0.00  0.00    +0.000 A 
ATOM     22  C   UNL     1     -45.823 -12.898 -29.732  0.00  0.00    +0.000 A 
ATOM     23  C   UNL     1     -45.153 -14.003 -29.197  0.00  0.00    +0.000 A 
ATOM     24  C   UNL     1     -45.368 -14.367 -27.865  0.00  0.00    +0.000 A 
ATOM     25  O   UNL     1     -44.694 -15.455 -27.302  0.00  0.00    +0.000 OA
ATOM     26  C   UNL     1     -44.684 -15.656 -25.887  0.00  0.00    +0.000 C 
ATOM     27  C   UNL     1     -46.054 -15.320 -25.295  0.00  0.00    +0.000 C 
ATOM     28  O   UNL     1     -46.492 -14.040 -25.755  0.00  0.00    +0.000 OA
ATOM     29  C   UNL     1     -46.266 -13.638 -27.074  0.00  0.00    +0.000 A 
ATOM     30  C   UNL     1     -46.922 -12.526 -27.605  0.00  0.00    +0.000 A 
ENDBRANCH  19  21
ENDBRANCH   8  17
TORSDOF 2
ENDMDL
