MODEL 1
REMARK VINA RESULT:      -7.7      0.000      0.000
REMARK  Name = ZINC000067847368 ZINC67847368 MCULE-8338375840 MolPort-016-608-745 PubChem-50964388
REMARK  5 active torsions:
REMARK  status: ('A' for Active; 'I' for Inactive)
REMARK    1  A    between atoms: C_1  and  C_9
REMARK    2  A    between atoms: C_3  and  C_22
REMARK    3  A    between atoms: N_5  and  C_15
REMARK    4  A    between atoms: C_22  and  C_23
REMARK    5  A    between atoms: C_23  and  C_24
REMARK                            x       y       z     vdW  Elec       q    Type
REMARK                         _______ _______ _______ _____ _____    ______ ____
ROOT
ATOM      1  C   UNL     1     -46.137  -5.527 -29.552  0.00  0.00    +0.000 A 
ATOM      2  N   UNL     1     -46.641  -5.773 -28.325  0.00  0.00    +0.000 NA
ATOM      3  C   UNL     1     -47.126  -4.567 -27.966  0.00  0.00    +0.000 A 
ATOM      4  N   UNL     1     -46.928  -3.622 -28.903  0.00  0.00    +0.000 NA
ATOM      5  N   UNL     1     -46.316  -4.230 -29.904  0.00  0.00    +0.000 N 
ENDROOT
BRANCH   1   9
ATOM      6  C   UNL     1     -41.800  -7.490 -31.019  0.00  0.00    +0.000 C 
ATOM      7  C   UNL     1     -43.287  -7.481 -31.049  0.00  0.00    +0.000 A 
ATOM      8  C   UNL     1     -43.992  -6.544 -30.290  0.00  0.00    +0.000 A 
ATOM      9  C   UNL     1     -45.392  -6.547 -30.316  0.00  0.00    +0.000 A 
ATOM     10  C   UNL     1     -46.055  -7.470 -31.134  0.00  0.00    +0.000 A 
ATOM     11  C   UNL     1     -45.315  -8.392 -31.877  0.00  0.00    +0.000 A 
ATOM     12  O   UNL     1     -45.906  -9.231 -32.603  0.00  0.00    +0.000 OA
ATOM     13  N   UNL     1     -43.956  -8.378 -31.819  0.00  0.00    +0.000 N 
ATOM     14  H   UNL     1     -43.447  -9.035 -32.346  0.00  0.00    +0.000 HD
ENDBRANCH   1   9
BRANCH   5  15
ATOM     15  C   UNL     1     -46.030  -3.577 -31.151  0.00  0.00    +0.000 A 
ATOM     16  C   UNL     1     -45.146  -2.490 -31.181  0.00  0.00    +0.000 A 
ATOM     17  C   UNL     1     -44.895  -1.816 -32.380  0.00  0.00    +0.000 A 
ATOM     18  C   UNL     1     -43.946  -0.673 -32.403  0.00  0.00    +0.000 C 
ATOM     19  C   UNL     1     -45.539  -2.213 -33.554  0.00  0.00    +0.000 A 
ATOM     20  C   UNL     1     -46.440  -3.282 -33.529  0.00  0.00    +0.000 A 
ATOM     21  C   UNL     1     -46.690  -3.956 -32.330  0.00  0.00    +0.000 A 
ENDBRANCH   5  15
BRANCH   3  22
ATOM     22  C   UNL     1     -47.756  -4.295 -26.646  0.00  0.00    +0.000 C 
BRANCH  22  23
ATOM     23  C   UNL     1     -47.381  -2.900 -26.175  0.00  0.00    +0.000 C 
BRANCH  23  24
ATOM     24  C   UNL     1     -47.255  -2.863 -24.691  0.00  0.00    +0.000 A 
ATOM     25  C   UNL     1     -47.284  -1.634 -24.024  0.00  0.00    +0.000 A 
ATOM     26  C   UNL     1     -47.151  -1.586 -22.633  0.00  0.00    +0.000 A 
ATOM     27  C   UNL     1     -46.985  -2.769 -21.906  0.00  0.00    +0.000 A 
ATOM     28  C   UNL     1     -46.948  -4.000 -22.570  0.00  0.00    +0.000 A 
ATOM     29  C   UNL     1     -47.081  -4.048 -23.962  0.00  0.00    +0.000 A 
ENDBRANCH  23  24
ENDBRANCH  22  23
ENDBRANCH   3  22
TORSDOF 5
ENDMDL
MODEL 2
REMARK VINA RESULT:      -7.0      2.221      2.982
REMARK  Name = ZINC000067847368 ZINC67847368 MCULE-8338375840 MolPort-016-608-745 PubChem-50964388
REMARK  5 active torsions:
REMARK  status: ('A' for Active; 'I' for Inactive)
REMARK    1  A    between atoms: C_1  and  C_9
REMARK    2  A    between atoms: C_3  and  C_22
REMARK    3  A    between atoms: N_5  and  C_15
REMARK    4  A    between atoms: C_22  and  C_23
REMARK    5  A    between atoms: C_23  and  C_24
REMARK                            x       y       z     vdW  Elec       q    Type
REMARK                         _______ _______ _______ _____ _____    ______ ____
ROOT
ATOM      1  C   UNL     1     -46.329  -5.665 -31.502  0.00  0.00    +0.000 A 
ATOM      2  N   UNL     1     -46.996  -6.025 -30.385  0.00  0.00    +0.000 NA
ATOM      3  C   UNL     1     -46.584  -5.099 -29.495  0.00  0.00    +0.000 A 
ATOM      4  N   UNL     1     -45.706  -4.223 -30.017  0.00  0.00    +0.000 NA
ATOM      5  N   UNL     1     -45.556  -4.575 -31.282  0.00  0.00    +0.000 N 
ENDROOT
BRANCH   1   9
ATOM      6  C   UNL     1     -45.929 -10.064 -33.806  0.00  0.00    +0.000 C 
ATOM      7  C   UNL     1     -46.159  -8.597 -33.861  0.00  0.00    +0.000 A 
ATOM      8  C   UNL     1     -46.155  -7.846 -32.683  0.00  0.00    +0.000 A 
ATOM      9  C   UNL     1     -46.382  -6.466 -32.741  0.00  0.00    +0.000 A 
ATOM     10  C   UNL     1     -46.575  -5.861 -33.990  0.00  0.00    +0.000 A 
ATOM     11  C   UNL     1     -46.573  -6.644 -35.145  0.00  0.00    +0.000 A 
ATOM     12  O   UNL     1     -46.757  -6.108 -36.267  0.00  0.00    +0.000 OA
ATOM     13  N   UNL     1     -46.368  -7.986 -35.057  0.00  0.00    +0.000 N 
ATOM     14  H   UNL     1     -46.372  -8.527 -35.879  0.00  0.00    +0.000 HD
ENDBRANCH   1   9
BRANCH   5  15
ATOM     15  C   UNL     1     -44.776  -3.808 -32.213  0.00  0.00    +0.000 A 
ATOM     16  C   UNL     1     -43.443  -4.162 -32.463  0.00  0.00    +0.000 A 
ATOM     17  C   UNL     1     -42.659  -3.397 -33.331  0.00  0.00    +0.000 A 
ATOM     18  C   UNL     1     -41.251  -3.789 -33.599  0.00  0.00    +0.000 C 
ATOM     19  C   UNL     1     -43.197  -2.262 -33.944  0.00  0.00    +0.000 A 
ATOM     20  C   UNL     1     -44.519  -1.889 -33.683  0.00  0.00    +0.000 A 
ATOM     21  C   UNL     1     -45.303  -2.655 -32.816  0.00  0.00    +0.000 A 
ENDBRANCH   5  15
BRANCH   3  22
ATOM     22  C   UNL     1     -47.006  -5.086 -28.068  0.00  0.00    +0.000 C 
BRANCH  22  23
ATOM     23  C   UNL     1     -47.520  -3.707 -27.697  0.00  0.00    +0.000 C 
BRANCH  23  24
ATOM     24  C   UNL     1     -47.387  -3.473 -26.232  0.00  0.00    +0.000 A 
ATOM     25  C   UNL     1     -47.287  -4.565 -25.363  0.00  0.00    +0.000 A 
ATOM     26  C   UNL     1     -47.177  -4.359 -23.984  0.00  0.00    +0.000 A 
ATOM     27  C   UNL     1     -47.171  -3.058 -23.471  0.00  0.00    +0.000 A 
ATOM     28  C   UNL     1     -47.279  -1.964 -24.336  0.00  0.00    +0.000 A 
ATOM     29  C   UNL     1     -47.389  -2.170 -25.715  0.00  0.00    +0.000 A 
ENDBRANCH  23  24
ENDBRANCH  22  23
ENDBRANCH   3  22
TORSDOF 5
ENDMDL
MODEL 3
REMARK VINA RESULT:      -7.0      2.806      7.505
REMARK  Name = ZINC000067847368 ZINC67847368 MCULE-8338375840 MolPort-016-608-745 PubChem-50964388
REMARK  5 active torsions:
REMARK  status: ('A' for Active; 'I' for Inactive)
REMARK    1  A    between atoms: C_1  and  C_9
REMARK    2  A    between atoms: C_3  and  C_22
REMARK    3  A    between atoms: N_5  and  C_15
REMARK    4  A    between atoms: C_22  and  C_23
REMARK    5  A    between atoms: C_23  and  C_24
REMARK                            x       y       z     vdW  Elec       q    Type
REMARK                         _______ _______ _______ _____ _____    ______ ____
ROOT
ATOM      1  C   UNL     1     -46.861  -4.880 -28.042  0.00  0.00    +0.000 A 
ATOM      2  N   UNL     1     -47.558  -4.205 -28.980  0.00  0.00    +0.000 NA
ATOM      3  C   UNL     1     -47.019  -4.669 -30.127  0.00  0.00    +0.000 A 
ATOM      4  N   UNL     1     -46.040  -5.569 -29.919  0.00  0.00    +0.000 NA
ATOM      5  N   UNL     1     -45.950  -5.707 -28.608  0.00  0.00    +0.000 N 
ENDROOT
BRANCH   1   9
ATOM      6  C   UNL     1     -47.506  -1.663 -24.293  0.00  0.00    +0.000 C 
ATOM      7  C   UNL     1     -47.315  -3.055 -24.778  0.00  0.00    +0.000 A 
ATOM      8  C   UNL     1     -47.201  -3.305 -26.148  0.00  0.00    +0.000 A 
ATOM      9  C   UNL     1     -47.031  -4.619 -26.598  0.00  0.00    +0.000 A 
ATOM     10  C   UNL     1     -46.943  -5.655 -25.659  0.00  0.00    +0.000 A 
ATOM     11  C   UNL     1     -47.062  -5.365 -24.299  0.00  0.00    +0.000 A 
ATOM     12  O   UNL     1     -46.996  -6.291 -23.452  0.00  0.00    +0.000 OA
ATOM     13  N   UNL     1     -47.245  -4.081 -23.890  0.00  0.00    +0.000 N 
ATOM     14  H   UNL     1     -47.331  -3.891 -22.928  0.00  0.00    +0.000 HD
ENDBRANCH   1   9
BRANCH   5  15
ATOM     15  C   UNL     1     -45.085  -6.672 -27.988  0.00  0.00    +0.000 A 
ATOM     16  C   UNL     1     -43.808  -6.288 -27.558  0.00  0.00    +0.000 A 
ATOM     17  C   UNL     1     -42.940  -7.228 -26.995  0.00  0.00    +0.000 A 
ATOM     18  C   UNL     1     -41.592  -6.808 -26.530  0.00  0.00    +0.000 C 
ATOM     19  C   UNL     1     -43.337  -8.562 -26.872  0.00  0.00    +0.000 A 
ATOM     20  C   UNL     1     -44.601  -8.958 -27.319  0.00  0.00    +0.000 A 
ATOM     21  C   UNL     1     -45.469  -8.018 -27.881  0.00  0.00    +0.000 A 
ENDBRANCH   5  15
BRANCH   3  22
ATOM     22  C   UNL     1     -47.422  -4.190 -31.477  0.00  0.00    +0.000 C 
BRANCH  22  23
ATOM     23  C   UNL     1     -46.228  -4.236 -32.415  0.00  0.00    +0.000 C 
BRANCH  23  24
ATOM     24  C   UNL     1     -45.515  -2.928 -32.421  0.00  0.00    +0.000 A 
ATOM     25  C   UNL     1     -44.742  -2.567 -33.529  0.00  0.00    +0.000 A 
ATOM     26  C   UNL     1     -44.056  -1.348 -33.540  0.00  0.00    +0.000 A 
ATOM     27  C   UNL     1     -44.139  -0.490 -32.439  0.00  0.00    +0.000 A 
ATOM     28  C   UNL     1     -44.905  -0.851 -31.327  0.00  0.00    +0.000 A 
ATOM     29  C   UNL     1     -45.591  -2.070 -31.316  0.00  0.00    +0.000 A 
ENDBRANCH  23  24
ENDBRANCH  22  23
ENDBRANCH   3  22
TORSDOF 5
ENDMDL
