MODEL 1
REMARK VINA RESULT:      -7.1      0.000      0.000
REMARK  Name = ZINC000031811413
REMARK  3 active torsions:
REMARK  status: ('A' for Active; 'I' for Inactive)
REMARK    1  A    between atoms: C_1  and  C_27
REMARK    2  A    between atoms: C_24  and  O_33
REMARK    3  A    between atoms: C_29  and  O_30
REMARK                            x       y       z     vdW  Elec       q    Type
REMARK                         _______ _______ _______ _____ _____    ______ ____
ROOT
ATOM      1  C   UNL     1     -44.923 -17.154 -23.388  0.00  0.00    +0.000 C 
ATOM      2  S   UNL     1     -43.458 -17.494 -24.403  0.00  0.00    +0.000 S 
ATOM      3  C   UNL     1     -44.504 -17.511 -25.869  0.00  0.00    +0.000 C 
ATOM      4  C   UNL     1     -44.466 -16.171 -26.500  0.00  0.00    +0.000 C 
ATOM      5  O   UNL     1     -44.059 -16.078 -27.687  0.00  0.00    +0.000 OA
ATOM      6  N   UNL     1     -44.885 -14.985 -25.818  0.00  0.00    +0.000 N 
ATOM      7  C   UNL     1     -45.347 -14.794 -24.469  0.00  0.00    +0.000 A 
ATOM      8  C   UNL     1     -45.303 -15.683 -23.389  0.00  0.00    +0.000 A 
ATOM      9  C   UNL     1     -45.824 -14.927 -22.333  0.00  0.00    +0.000 A 
ATOM     10  C   UNL     1     -46.109 -15.375 -20.942  0.00  0.00    +0.000 C 
ATOM     11  N   UNL     1     -46.110 -13.680 -22.749  0.00  0.00    +0.000 NA
ATOM     12  N   UNL     1     -45.826 -13.607 -24.037  0.00  0.00    +0.000 N 
ATOM     13  H   UNL     1     -44.851 -14.165 -26.361  0.00  0.00    +0.000 HD
ATOM     14  C   UNL     1     -45.994 -12.400 -24.796  0.00  0.00    +0.000 A 
ATOM     15  N   UNL     1     -45.833 -11.184 -24.192  0.00  0.00    +0.000 NA
ATOM     16  C   UNL     1     -46.016 -10.012 -24.881  0.00  0.00    +0.000 A 
ATOM     17  N   UNL     1     -46.383 -10.031 -26.197  0.00  0.00    +0.000 NA
ATOM     18  C   UNL     1     -46.556 -11.235 -26.793  0.00  0.00    +0.000 A 
ATOM     19  N   UNL     1     -46.968 -11.453 -28.049  0.00  0.00    +0.000 N 
ATOM     20  C   UNL     1     -47.034 -12.811 -28.104  0.00  0.00    +0.000 A 
ATOM     21  N   UNL     1     -46.688 -13.429 -26.941  0.00  0.00    +0.000 NA
ATOM     22  C   UNL     1     -46.381 -12.401 -26.136  0.00  0.00    +0.000 A 
ATOM     23  H   UNL     1     -47.170 -10.796 -28.753  0.00  0.00    +0.000 HD
ENDROOT
BRANCH   1  27
ATOM     24  C   UNL     1     -44.358 -18.892 -19.485  0.00  0.00    +0.000 A 
ATOM     25  C   UNL     1     -43.318 -18.190 -20.117  0.00  0.00    +0.000 A 
ATOM     26  C   UNL     1     -43.511 -17.629 -21.382  0.00  0.00    +0.000 A 
ATOM     27  C   UNL     1     -44.741 -17.765 -22.031  0.00  0.00    +0.000 A 
ATOM     28  C   UNL     1     -45.783 -18.464 -21.402  0.00  0.00    +0.000 A 
ATOM     29  C   UNL     1     -45.593 -19.025 -20.137  0.00  0.00    +0.000 A 
BRANCH  29  30
ATOM     30  O   UNL     1     -46.634 -19.715 -19.529  0.00  0.00    +0.000 OA
ATOM     31  H   UNL     1     -47.158 -20.309 -20.031  0.00  0.00    +0.000 HD
ENDBRANCH  29  30
BRANCH  24  33
ATOM     32  C   UNL     1     -42.955 -19.405 -17.510  0.00  0.00    +0.000 C 
ATOM     33  O   UNL     1     -44.185 -19.463 -18.220  0.00  0.00    +0.000 OA
ENDBRANCH  24  33
ENDBRANCH   1  27
TORSDOF 3
ENDMDL
MODEL 2
REMARK VINA RESULT:      -6.8      8.384     12.201
REMARK  Name = ZINC000031811413
REMARK  3 active torsions:
REMARK  status: ('A' for Active; 'I' for Inactive)
REMARK    1  A    between atoms: C_1  and  C_27
REMARK    2  A    between atoms: C_24  and  O_33
REMARK    3  A    between atoms: C_29  and  O_30
REMARK                            x       y       z     vdW  Elec       q    Type
REMARK                         _______ _______ _______ _____ _____    ______ ____
ROOT
ATOM      1  C   UNL     1     -46.349  -6.039 -29.230  0.00  0.00    +0.000 C 
ATOM      2  S   UNL     1     -47.484  -6.342 -30.612  0.00  0.00    +0.000 S 
ATOM      3  C   UNL     1     -47.630  -4.563 -30.853  0.00  0.00    +0.000 C 
ATOM      4  C   UNL     1     -46.674  -4.143 -31.905  0.00  0.00    +0.000 C 
ATOM      5  O   UNL     1     -47.125  -3.582 -32.937  0.00  0.00    +0.000 OA
ATOM      6  N   UNL     1     -45.262  -4.338 -31.785  0.00  0.00    +0.000 N 
ATOM      7  C   UNL     1     -44.487  -4.976 -30.754  0.00  0.00    +0.000 A 
ATOM      8  C   UNL     1     -44.926  -5.775 -29.691  0.00  0.00    +0.000 A 
ATOM      9  C   UNL     1     -43.733  -6.164 -29.073  0.00  0.00    +0.000 A 
ATOM     10  C   UNL     1     -43.568  -6.955 -27.822  0.00  0.00    +0.000 C 
ATOM     11  N   UNL     1     -42.677  -5.669 -29.743  0.00  0.00    +0.000 NA
ATOM     12  N   UNL     1     -43.137  -4.950 -30.751  0.00  0.00    +0.000 N 
ATOM     13  H   UNL     1     -44.732  -3.976 -32.532  0.00  0.00    +0.000 HD
ATOM     14  C   UNL     1     -42.271  -4.293 -31.688  0.00  0.00    +0.000 A 
ATOM     15  N   UNL     1     -41.055  -4.840 -31.995  0.00  0.00    +0.000 NA
ATOM     16  C   UNL     1     -40.191  -4.223 -32.863  0.00  0.00    +0.000 A 
ATOM     17  N   UNL     1     -40.520  -3.027 -33.437  0.00  0.00    +0.000 NA
ATOM     18  C   UNL     1     -41.718  -2.478 -33.124  0.00  0.00    +0.000 A 
ATOM     19  N   UNL     1     -42.186  -1.294 -33.538  0.00  0.00    +0.000 N 
ATOM     20  C   UNL     1     -43.377  -1.206 -32.885  0.00  0.00    +0.000 A 
ATOM     21  N   UNL     1     -43.652  -2.276 -32.090  0.00  0.00    +0.000 NA
ATOM     22  C   UNL     1     -42.585  -3.067 -32.274  0.00  0.00    +0.000 A 
ATOM     23  H   UNL     1     -41.774  -0.651 -34.158  0.00  0.00    +0.000 HD
ENDROOT
BRANCH   1  27
ATOM     24  C   UNL     1     -46.772  -9.150 -26.277  0.00  0.00    +0.000 A 
ATOM     25  C   UNL     1     -46.592  -7.812 -25.891  0.00  0.00    +0.000 A 
ATOM     26  C   UNL     1     -46.456  -6.810 -26.855  0.00  0.00    +0.000 A 
ATOM     27  C   UNL     1     -46.497  -7.133 -28.215  0.00  0.00    +0.000 A 
ATOM     28  C   UNL     1     -46.680  -8.468 -28.604  0.00  0.00    +0.000 A 
ATOM     29  C   UNL     1     -46.816  -9.472 -27.642  0.00  0.00    +0.000 A 
BRANCH  29  30
ATOM     30  O   UNL     1     -46.995 -10.789 -28.046  0.00  0.00    +0.000 OA
ATOM     31  H   UNL     1     -46.850 -11.489 -27.438  0.00  0.00    +0.000 HD
ENDBRANCH  29  30
BRANCH  24  33
ATOM     32  C   UNL     1     -45.796 -10.765 -24.673  0.00  0.00    +0.000 C 
ATOM     33  O   UNL     1     -46.908 -10.169 -25.328  0.00  0.00    +0.000 OA
ENDBRANCH  24  33
ENDBRANCH   1  27
TORSDOF 3
ENDMDL
MODEL 3
REMARK VINA RESULT:      -6.8      2.931      3.650
REMARK  Name = ZINC000031811413
REMARK  3 active torsions:
REMARK  status: ('A' for Active; 'I' for Inactive)
REMARK    1  A    between atoms: C_1  and  C_27
REMARK    2  A    between atoms: C_24  and  O_33
REMARK    3  A    between atoms: C_29  and  O_30
REMARK                            x       y       z     vdW  Elec       q    Type
REMARK                         _______ _______ _______ _____ _____    ______ ____
ROOT
ATOM      1  C   UNL     1     -44.391 -15.691 -26.855  0.00  0.00    +0.000 C 
ATOM      2  S   UNL     1     -42.778 -15.262 -27.566  0.00  0.00    +0.000 S 
ATOM      3  C   UNL     1     -43.610 -14.705 -29.063  0.00  0.00    +0.000 C 
ATOM      4  C   UNL     1     -43.815 -13.239 -28.980  0.00  0.00    +0.000 C 
ATOM      5  O   UNL     1     -43.303 -12.510 -29.870  0.00  0.00    +0.000 OA
ATOM      6  N   UNL     1     -44.578 -12.625 -27.937  0.00  0.00    +0.000 N 
ATOM      7  C   UNL     1     -45.228 -13.198 -26.789  0.00  0.00    +0.000 A 
ATOM      8  C   UNL     1     -45.104 -14.489 -26.261  0.00  0.00    +0.000 A 
ATOM      9  C   UNL     1     -45.909 -14.443 -25.118  0.00  0.00    +0.000 A 
ATOM     10  C   UNL     1     -46.243 -15.558 -24.189  0.00  0.00    +0.000 C 
ATOM     11  N   UNL     1     -46.429 -13.212 -24.963  0.00  0.00    +0.000 NA
ATOM     12  N   UNL     1     -46.021 -12.468 -25.975  0.00  0.00    +0.000 N 
ATOM     13  H   UNL     1     -44.674 -11.648 -28.019  0.00  0.00    +0.000 HD
ATOM     14  C   UNL     1     -46.378 -11.084 -26.108  0.00  0.00    +0.000 A 
ATOM     15  N   UNL     1     -46.580 -10.320 -24.993  0.00  0.00    +0.000 NA
ATOM     16  C   UNL     1     -46.951  -9.002 -25.085  0.00  0.00    +0.000 A 
ATOM     17  N   UNL     1     -47.145  -8.420 -26.306  0.00  0.00    +0.000 NA
ATOM     18  C   UNL     1     -46.959  -9.180 -27.412  0.00  0.00    +0.000 A 
ATOM     19  N   UNL     1     -47.156  -8.805 -28.681  0.00  0.00    +0.000 N 
ATOM     20  C   UNL     1     -46.893  -9.949 -29.370  0.00  0.00    +0.000 A 
ATOM     21  N   UNL     1     -46.551 -11.003 -28.579  0.00  0.00    +0.000 NA
ATOM     22  C   UNL     1     -46.592 -10.478 -27.346  0.00  0.00    +0.000 A 
ATOM     23  H   UNL     1     -47.423  -7.923 -29.029  0.00  0.00    +0.000 HD
ENDROOT
BRANCH   1  27
ATOM     24  C   UNL     1     -43.901 -19.028 -24.171  0.00  0.00    +0.000 A 
ATOM     25  C   UNL     1     -43.094 -17.885 -24.053  0.00  0.00    +0.000 A 
ATOM     26  C   UNL     1     -43.260 -16.808 -24.926  0.00  0.00    +0.000 A 
ATOM     27  C   UNL     1     -44.232 -16.860 -25.930  0.00  0.00    +0.000 A 
ATOM     28  C   UNL     1     -45.042 -18.000 -26.050  0.00  0.00    +0.000 A 
ATOM     29  C   UNL     1     -44.878 -19.078 -25.177  0.00  0.00    +0.000 A 
BRANCH  29  30
ATOM     30  O   UNL     1     -45.687 -20.198 -25.311  0.00  0.00    +0.000 OA
ATOM     31  H   UNL     1     -45.413 -21.021 -24.954  0.00  0.00    +0.000 HD
ENDBRANCH  29  30
BRANCH  24  33
ATOM     32  C   UNL     1     -42.686 -21.052 -23.426  0.00  0.00    +0.000 C 
ATOM     33  O   UNL     1     -43.750 -20.118 -23.308  0.00  0.00    +0.000 OA
ENDBRANCH  24  33
ENDBRANCH   1  27
TORSDOF 3
ENDMDL
