MODEL 1
REMARK VINA RESULT:      -6.9      0.000      0.000
REMARK  Name = ZINC000031811577
REMARK  1 active torsions:
REMARK  status: ('A' for Active; 'I' for Inactive)
REMARK    1  A    between atoms: C_7  and  C_24
REMARK                            x       y       z     vdW  Elec       q    Type
REMARK                         _______ _______ _______ _____ _____    ______ ____
ROOT
ATOM      1  C   UNL     1     -45.088 -18.476 -22.250  0.00  0.00    +0.000 C 
ATOM      2  C   UNL     1     -45.379 -17.015 -22.289  0.00  0.00    +0.000 A 
ATOM      3  N   UNL     1     -45.349 -16.310 -23.432  0.00  0.00    +0.000 NA
ATOM      4  N   UNL     1     -45.715 -15.070 -23.158  0.00  0.00    +0.000 N 
ATOM      5  C   UNL     1     -46.033 -14.972 -21.844  0.00  0.00    +0.000 A 
ATOM      6  C   UNL     1     -45.767 -16.200 -21.224  0.00  0.00    +0.000 A 
ATOM      7  C   UNL     1     -45.936 -16.606 -19.767  0.00  0.00    +0.000 C 
ATOM      8  S   UNL     1     -45.686 -15.225 -18.616  0.00  0.00    +0.000 S 
ATOM      9  C   UNL     1     -47.353 -14.647 -18.977  0.00  0.00    +0.000 C 
ATOM     10  C   UNL     1     -47.281 -13.593 -20.015  0.00  0.00    +0.000 C 
ATOM     11  O   UNL     1     -47.756 -12.459 -19.752  0.00  0.00    +0.000 OA
ATOM     12  N   UNL     1     -46.700 -13.819 -21.303  0.00  0.00    +0.000 N 
ATOM     13  H   UNL     1     -46.770 -13.056 -21.923  0.00  0.00    +0.000 HD
ATOM     14  C   UNL     1     -45.805 -14.058 -24.175  0.00  0.00    +0.000 A 
ATOM     15  N   UNL     1     -46.270 -14.387 -25.419  0.00  0.00    +0.000 NA
ATOM     16  C   UNL     1     -46.341 -13.464 -26.432  0.00  0.00    +0.000 A 
ATOM     17  N   UNL     1     -45.925 -12.179 -26.227  0.00  0.00    +0.000 NA
ATOM     18  C   UNL     1     -45.445 -11.852 -25.005  0.00  0.00    +0.000 A 
ATOM     19  N   UNL     1     -44.957 -10.663 -24.634  0.00  0.00    +0.000 N 
ATOM     20  C   UNL     1     -44.568 -10.891 -23.351  0.00  0.00    +0.000 A 
ATOM     21  N   UNL     1     -44.793 -12.165 -22.927  0.00  0.00    +0.000 NA
ATOM     22  C   UNL     1     -45.360 -12.744 -23.993  0.00  0.00    +0.000 A 
ATOM     23  H   UNL     1     -44.895  -9.831 -25.158  0.00  0.00    +0.000 HD
ENDROOT
BRANCH   7  24
ATOM     24  C   UNL     1     -45.044 -17.746 -19.350  0.00  0.00    +0.000 A 
ATOM     25  C   UNL     1     -45.619 -19.003 -19.097  0.00  0.00    +0.000 A 
ATOM     26  F   UNL     1     -46.960 -19.181 -19.200  0.00  0.00    +0.000 F 
ATOM     27  C   UNL     1     -44.815 -20.078 -18.707  0.00  0.00    +0.000 A 
ATOM     28  C   UNL     1     -43.436 -19.908 -18.564  0.00  0.00    +0.000 A 
ATOM     29  C   UNL     1     -42.857 -18.661 -18.808  0.00  0.00    +0.000 A 
ATOM     30  C   UNL     1     -43.651 -17.580 -19.199  0.00  0.00    +0.000 A 
ATOM     31  F   UNL     1     -43.066 -16.377 -19.419  0.00  0.00    +0.000 F 
ENDBRANCH   7  24
TORSDOF 1
ENDMDL
MODEL 2
REMARK VINA RESULT:      -6.8     10.606     13.721
REMARK  Name = ZINC000031811577
REMARK  1 active torsions:
REMARK  status: ('A' for Active; 'I' for Inactive)
REMARK    1  A    between atoms: C_7  and  C_24
REMARK                            x       y       z     vdW  Elec       q    Type
REMARK                         _______ _______ _______ _____ _____    ______ ____
ROOT
ATOM      1  C   UNL     1     -43.137  -7.031 -27.944  0.00  0.00    +0.000 C 
ATOM      2  C   UNL     1     -43.441  -6.263 -29.183  0.00  0.00    +0.000 A 
ATOM      3  N   UNL     1     -42.504  -5.553 -29.833  0.00  0.00    +0.000 NA
ATOM      4  N   UNL     1     -43.055  -5.046 -30.922  0.00  0.00    +0.000 N 
ATOM      5  C   UNL     1     -44.341  -5.463 -31.014  0.00  0.00    +0.000 A 
ATOM      6  C   UNL     1     -44.657  -6.206 -29.869  0.00  0.00    +0.000 A 
ATOM      7  C   UNL     1     -45.965  -6.878 -29.480  0.00  0.00    +0.000 C 
ATOM      8  S   UNL     1     -47.424  -6.001 -30.111  0.00  0.00    +0.000 S 
ATOM      9  C   UNL     1     -47.152  -6.752 -31.726  0.00  0.00    +0.000 C 
ATOM     10  C   UNL     1     -46.402  -5.800 -32.578  0.00  0.00    +0.000 C 
ATOM     11  O   UNL     1     -46.914  -5.439 -33.668  0.00  0.00    +0.000 OA
ATOM     12  N   UNL     1     -45.120  -5.283 -32.210  0.00  0.00    +0.000 N 
ATOM     13  H   UNL     1     -44.699  -4.707 -32.890  0.00  0.00    +0.000 HD
ATOM     14  C   UNL     1     -42.310  -4.243 -31.853  0.00  0.00    +0.000 A 
ATOM     15  N   UNL     1     -41.007  -4.559 -32.128  0.00  0.00    +0.000 NA
ATOM     16  C   UNL     1     -40.244  -3.802 -32.981  0.00  0.00    +0.000 A 
ATOM     17  N   UNL     1     -40.767  -2.686 -33.572  0.00  0.00    +0.000 NA
ATOM     18  C   UNL     1     -42.049  -2.358 -33.288  0.00  0.00    +0.000 A 
ATOM     19  N   UNL     1     -42.714  -1.286 -33.737  0.00  0.00    +0.000 N 
ATOM     20  C   UNL     1     -43.917  -1.404 -33.115  0.00  0.00    +0.000 A 
ATOM     21  N   UNL     1     -44.013  -2.494 -32.305  0.00  0.00    +0.000 NA
ATOM     22  C   UNL     1     -42.819  -3.084 -32.447  0.00  0.00    +0.000 A 
ATOM     23  H   UNL     1     -42.408  -0.588 -34.361  0.00  0.00    +0.000 HD
ENDROOT
BRANCH   7  24
ATOM     24  C   UNL     1     -46.128  -7.072 -27.995  0.00  0.00    +0.000 A 
ATOM     25  C   UNL     1     -46.128  -8.377 -27.475  0.00  0.00    +0.000 A 
ATOM     26  F   UNL     1     -46.012  -9.448 -28.300  0.00  0.00    +0.000 F 
ATOM     27  C   UNL     1     -46.278  -8.586 -26.101  0.00  0.00    +0.000 A 
ATOM     28  C   UNL     1     -46.432  -7.499 -25.238  0.00  0.00    +0.000 A 
ATOM     29  C   UNL     1     -46.437  -6.199 -25.747  0.00  0.00    +0.000 A 
ATOM     30  C   UNL     1     -46.288  -5.979 -27.118  0.00  0.00    +0.000 A 
ATOM     31  F   UNL     1     -46.308  -4.706 -27.588  0.00  0.00    +0.000 F 
ENDBRANCH   7  24
TORSDOF 1
ENDMDL
MODEL 3
REMARK VINA RESULT:      -6.6     10.839     15.365
REMARK  Name = ZINC000031811577
REMARK  1 active torsions:
REMARK  status: ('A' for Active; 'I' for Inactive)
REMARK    1  A    between atoms: C_7  and  C_24
REMARK                            x       y       z     vdW  Elec       q    Type
REMARK                         _______ _______ _______ _____ _____    ______ ____
ROOT
ATOM      1  C   UNL     1     -45.792  -3.175 -30.622  0.00  0.00    +0.000 C 
ATOM      2  C   UNL     1     -45.558  -4.636 -30.789  0.00  0.00    +0.000 A 
ATOM      3  N   UNL     1     -45.923  -5.532 -29.858  0.00  0.00    +0.000 NA
ATOM      4  N   UNL     1     -45.649  -6.739 -30.320  0.00  0.00    +0.000 N 
ATOM      5  C   UNL     1     -45.149  -6.640 -31.575  0.00  0.00    +0.000 A 
ATOM      6  C   UNL     1     -45.011  -5.284 -31.899  0.00  0.00    +0.000 A 
ATOM      7  C   UNL     1     -44.484  -4.642 -33.174  0.00  0.00    +0.000 C 
ATOM      8  S   UNL     1     -43.211  -5.643 -33.995  0.00  0.00    +0.000 S 
ATOM      9  C   UNL     1     -44.506  -6.690 -34.682  0.00  0.00    +0.000 C 
ATOM     10  C   UNL     1     -44.667  -7.883 -33.818  0.00  0.00    +0.000 C 
ATOM     11  O   UNL     1     -44.517  -9.020 -34.332  0.00  0.00    +0.000 OA
ATOM     12  N   UNL     1     -44.992  -7.788 -32.428  0.00  0.00    +0.000 N 
ATOM     13  H   UNL     1     -45.131  -8.654 -31.979  0.00  0.00    +0.000 HD
ATOM     14  C   UNL     1     -45.937  -7.929 -29.566  0.00  0.00    +0.000 A 
ATOM     15  N   UNL     1     -47.081  -7.996 -28.817  0.00  0.00    +0.000 NA
ATOM     16  C   UNL     1     -47.381  -9.095 -28.053  0.00  0.00    +0.000 A 
ATOM     17  N   UNL     1     -46.526 -10.159 -28.005  0.00  0.00    +0.000 NA
ATOM     18  C   UNL     1     -45.384 -10.091 -28.728  0.00  0.00    +0.000 A 
ATOM     19  N   UNL     1     -44.414 -11.012 -28.772  0.00  0.00    +0.000 N 
ATOM     20  C   UNL     1     -43.492 -10.431 -29.585  0.00  0.00    +0.000 A 
ATOM     21  N   UNL     1     -43.855  -9.198 -30.034  0.00  0.00    +0.000 NA
ATOM     22  C   UNL     1     -45.063  -9.017 -29.483  0.00  0.00    +0.000 A 
ATOM     23  H   UNL     1     -44.378 -11.890 -28.327  0.00  0.00    +0.000 HD
ENDROOT
BRANCH   7  24
ATOM     24  C   UNL     1     -43.943  -3.251 -32.972  0.00  0.00    +0.000 A 
ATOM     25  C   UNL     1     -44.698  -2.155 -33.423  0.00  0.00    +0.000 A 
ATOM     26  F   UNL     1     -45.882  -2.347 -34.056  0.00  0.00    +0.000 F 
ATOM     27  C   UNL     1     -44.220  -0.853 -33.249  0.00  0.00    +0.000 A 
ATOM     28  C   UNL     1     -42.988  -0.634 -32.628  0.00  0.00    +0.000 A 
ATOM     29  C   UNL     1     -42.229  -1.718 -32.181  0.00  0.00    +0.000 A 
ATOM     30  C   UNL     1     -42.698  -3.022 -32.349  0.00  0.00    +0.000 A 
ATOM     31  F   UNL     1     -41.937  -4.059 -31.917  0.00  0.00    +0.000 F 
ENDBRANCH   7  24
TORSDOF 1
ENDMDL
