MODEL 1
REMARK VINA RESULT:      -7.3      0.000      0.000
REMARK  Name = ZINC000031810539
REMARK  1 active torsions:
REMARK  status: ('A' for Active; 'I' for Inactive)
REMARK    1  A    between atoms: C_7  and  C_24
REMARK                            x       y       z     vdW  Elec       q    Type
REMARK                         _______ _______ _______ _____ _____    ______ ____
ROOT
ATOM      1  C   UNL     1     -46.478 -15.174 -20.931  0.00  0.00    +0.000 C 
ATOM      2  C   UNL     1     -46.013 -14.778 -22.290  0.00  0.00    +0.000 A 
ATOM      3  N   UNL     1     -46.206 -13.539 -22.772  0.00  0.00    +0.000 NA
ATOM      4  N   UNL     1     -45.773 -13.518 -24.019  0.00  0.00    +0.000 N 
ATOM      5  C   UNL     1     -45.290 -14.733 -24.357  0.00  0.00    +0.000 A 
ATOM      6  C   UNL     1     -45.393 -15.585 -23.250  0.00  0.00    +0.000 A 
ATOM      7  C   UNL     1     -45.077 -17.070 -23.145  0.00  0.00    +0.000 C 
ATOM      8  S   UNL     1     -43.600 -17.551 -24.083  0.00  0.00    +0.000 S 
ATOM      9  C   UNL     1     -44.561 -17.537 -25.604  0.00  0.00    +0.000 C 
ATOM     10  C   UNL     1     -44.360 -16.230 -26.271  0.00  0.00    +0.000 C 
ATOM     11  O   UNL     1     -43.862 -16.214 -27.427  0.00  0.00    +0.000 OA
ATOM     12  N   UNL     1     -44.715 -14.992 -25.651  0.00  0.00    +0.000 N 
ATOM     13  H   UNL     1     -44.540 -14.191 -26.195  0.00  0.00    +0.000 HD
ATOM     14  C   UNL     1     -45.819 -12.335 -24.831  0.00  0.00    +0.000 A 
ATOM     15  N   UNL     1     -45.432 -11.132 -24.311  0.00  0.00    +0.000 NA
ATOM     16  C   UNL     1     -45.492  -9.979 -25.050  0.00  0.00    +0.000 A 
ATOM     17  N   UNL     1     -45.960 -10.001 -26.334  0.00  0.00    +0.000 NA
ATOM     18  C   UNL     1     -46.359 -11.190 -26.846  0.00  0.00    +0.000 A 
ATOM     19  N   UNL     1     -46.897 -11.399 -28.054  0.00  0.00    +0.000 N 
ATOM     20  C   UNL     1     -47.168 -12.732 -28.028  0.00  0.00    +0.000 A 
ATOM     21  N   UNL     1     -46.826 -13.342 -26.860  0.00  0.00    +0.000 NA
ATOM     22  C   UNL     1     -46.307 -12.338 -26.138  0.00  0.00    +0.000 A 
ATOM     23  H   UNL     1     -47.054 -10.751 -28.778  0.00  0.00    +0.000 HD
ENDROOT
BRANCH   7  24
ATOM     24  C   UNL     1     -44.950 -17.583 -21.742  0.00  0.00    +0.000 A 
ATOM     25  C   UNL     1     -43.818 -17.244 -20.992  0.00  0.00    +0.000 A 
ATOM     26  C   UNL     1     -43.679 -17.707 -19.680  0.00  0.00    +0.000 A 
ATOM     27  C   UNL     1     -44.673 -18.511 -19.113  0.00  0.00    +0.000 A 
ATOM     28  C   UNL     1     -45.807 -18.850 -19.856  0.00  0.00    +0.000 A 
ATOM     29  F   UNL     1     -46.769 -19.627 -19.306  0.00  0.00    +0.000 F 
ATOM     30  C   UNL     1     -45.948 -18.387 -21.167  0.00  0.00    +0.000 A 
ENDBRANCH   7  24
TORSDOF 1
ENDMDL
MODEL 2
REMARK VINA RESULT:      -6.9     13.010     15.110
REMARK  Name = ZINC000031810539
REMARK  1 active torsions:
REMARK  status: ('A' for Active; 'I' for Inactive)
REMARK    1  A    between atoms: C_7  and  C_24
REMARK                            x       y       z     vdW  Elec       q    Type
REMARK                         _______ _______ _______ _____ _____    ______ ____
ROOT
ATOM      1  C   UNL     1     -47.082  -3.612 -33.675  0.00  0.00    +0.000 C 
ATOM      2  C   UNL     1     -46.402  -4.831 -34.199  0.00  0.00    +0.000 A 
ATOM      3  N   UNL     1     -46.974  -5.617 -35.126  0.00  0.00    +0.000 NA
ATOM      4  N   UNL     1     -46.181  -6.655 -35.320  0.00  0.00    +0.000 N 
ATOM      5  C   UNL     1     -45.089  -6.551 -34.532  0.00  0.00    +0.000 A 
ATOM      6  C   UNL     1     -45.169  -5.358 -33.803  0.00  0.00    +0.000 A 
ATOM      7  C   UNL     1     -44.243  -4.830 -32.717  0.00  0.00    +0.000 C 
ATOM      8  S   UNL     1     -42.490  -5.162 -33.052  0.00  0.00    +0.000 S 
ATOM      9  C   UNL     1     -42.705  -6.858 -32.490  0.00  0.00    +0.000 C 
ATOM     10  C   UNL     1     -42.926  -7.718 -33.675  0.00  0.00    +0.000 C 
ATOM     11  O   UNL     1     -42.113  -8.650 -33.903  0.00  0.00    +0.000 OA
ATOM     12  N   UNL     1     -44.031  -7.527 -34.562  0.00  0.00    +0.000 N 
ATOM     13  H   UNL     1     -44.076  -8.165 -35.311  0.00  0.00    +0.000 HD
ATOM     14  C   UNL     1     -46.487  -7.694 -36.262  0.00  0.00    +0.000 A 
ATOM     15  N   UNL     1     -46.947  -7.373 -37.509  0.00  0.00    +0.000 NA
ATOM     16  C   UNL     1     -47.277  -8.341 -38.422  0.00  0.00    +0.000 A 
ATOM     17  N   UNL     1     -47.168  -9.665 -38.101  0.00  0.00    +0.000 NA
ATOM     18  C   UNL     1     -46.727  -9.984 -36.861  0.00  0.00    +0.000 A 
ATOM     19  N   UNL     1     -46.612 -11.215 -36.347  0.00  0.00    +0.000 N 
ATOM     20  C   UNL     1     -46.198 -10.965 -35.076  0.00  0.00    +0.000 A 
ATOM     21  N   UNL     1     -46.061  -9.641 -34.790  0.00  0.00    +0.000 NA
ATOM     22  C   UNL     1     -46.395  -9.050 -35.946  0.00  0.00    +0.000 A 
ATOM     23  H   UNL     1     -46.782 -12.082 -36.781  0.00  0.00    +0.000 HD
ENDROOT
BRANCH   7  24
ATOM     24  C   UNL     1     -44.410  -3.372 -32.410  0.00  0.00    +0.000 A 
ATOM     25  C   UNL     1     -45.134  -2.994 -31.273  0.00  0.00    +0.000 A 
ATOM     26  C   UNL     1     -45.301  -1.641 -30.963  0.00  0.00    +0.000 A 
ATOM     27  C   UNL     1     -44.743  -0.660 -31.789  0.00  0.00    +0.000 A 
ATOM     28  C   UNL     1     -44.017  -1.032 -32.924  0.00  0.00    +0.000 A 
ATOM     29  F   UNL     1     -43.476  -0.082 -33.723  0.00  0.00    +0.000 F 
ATOM     30  C   UNL     1     -43.849  -2.384 -33.235  0.00  0.00    +0.000 A 
ENDBRANCH   7  24
TORSDOF 1
ENDMDL
MODEL 3
REMARK VINA RESULT:      -6.7      8.869     10.800
REMARK  Name = ZINC000031810539
REMARK  1 active torsions:
REMARK  status: ('A' for Active; 'I' for Inactive)
REMARK    1  A    between atoms: C_7  and  C_24
REMARK                            x       y       z     vdW  Elec       q    Type
REMARK                         _______ _______ _______ _____ _____    ______ ____
ROOT
ATOM      1  C   UNL     1     -47.564  -4.582 -26.186  0.00  0.00    +0.000 C 
ATOM      2  C   UNL     1     -46.904  -4.805 -27.503  0.00  0.00    +0.000 A 
ATOM      3  N   UNL     1     -46.834  -3.839 -28.434  0.00  0.00    +0.000 NA
ATOM      4  N   UNL     1     -46.281  -4.358 -29.515  0.00  0.00    +0.000 N 
ATOM      5  C   UNL     1     -45.980  -5.657 -29.297  0.00  0.00    +0.000 A 
ATOM      6  C   UNL     1     -46.337  -5.990 -27.984  0.00  0.00    +0.000 A 
ATOM      7  C   UNL     1     -46.290  -7.342 -27.289  0.00  0.00    +0.000 C 
ATOM      8  S   UNL     1     -44.829  -8.322 -27.734  0.00  0.00    +0.000 S 
ATOM      9  C   UNL     1     -45.616  -8.790 -29.283  0.00  0.00    +0.000 C 
ATOM     10  C   UNL     1     -45.129  -7.881 -30.347  0.00  0.00    +0.000 C 
ATOM     11  O   UNL     1     -44.522  -8.376 -31.331  0.00  0.00    +0.000 OA
ATOM     12  N   UNL     1     -45.330  -6.466 -30.294  0.00  0.00    +0.000 N 
ATOM     13  H   UNL     1     -44.967  -5.967 -31.062  0.00  0.00    +0.000 HD
ATOM     14  C   UNL     1     -46.044  -3.590 -30.704  0.00  0.00    +0.000 A 
ATOM     15  N   UNL     1     -45.513  -2.334 -30.613  0.00  0.00    +0.000 NA
ATOM     16  C   UNL     1     -45.301  -1.563 -31.727  0.00  0.00    +0.000 A 
ATOM     17  N   UNL     1     -45.635  -2.029 -32.968  0.00  0.00    +0.000 NA
ATOM     18  C   UNL     1     -46.175  -3.267 -33.058  0.00  0.00    +0.000 A 
ATOM     19  N   UNL     1     -46.617  -3.866 -34.171  0.00  0.00    +0.000 N 
ATOM     20  C   UNL     1     -47.112  -5.041 -33.696  0.00  0.00    +0.000 A 
ATOM     21  N   UNL     1     -46.998  -5.182 -32.347  0.00  0.00    +0.000 NA
ATOM     22  C   UNL     1     -46.391  -4.045 -31.977  0.00  0.00    +0.000 A 
ATOM     23  H   UNL     1     -46.589  -3.539 -35.099  0.00  0.00    +0.000 HD
ENDROOT
BRANCH   7  24
ATOM     24  C   UNL     1     -46.394  -7.278 -25.794  0.00  0.00    +0.000 A 
ATOM     25  C   UNL     1     -47.581  -7.685 -25.175  0.00  0.00    +0.000 A 
ATOM     26  C   UNL     1     -47.701  -7.638 -23.783  0.00  0.00    +0.000 A 
ATOM     27  C   UNL     1     -46.632  -7.184 -23.004  0.00  0.00    +0.000 A 
ATOM     28  C   UNL     1     -45.442  -6.780 -23.616  0.00  0.00    +0.000 A 
ATOM     29  F   UNL     1     -44.407  -6.342 -22.862  0.00  0.00    +0.000 F 
ATOM     30  C   UNL     1     -45.321  -6.827 -25.008  0.00  0.00    +0.000 A 
ENDBRANCH   7  24
TORSDOF 1
ENDMDL
