MODEL 1
REMARK VINA RESULT:      -6.6      0.000      0.000
REMARK  Name = ZINC000012772569 CSC027018696 MCULE-2308435649 MolPort-005-665-378
REMARK  4 active torsions:
REMARK  status: ('A' for Active; 'I' for Inactive)
REMARK    1  A    between atoms: C_1  and  C_19
REMARK    2  A    between atoms: N_18  and  C_23
REMARK    3  A    between atoms: C_22  and  O_32
REMARK    4  A    between atoms: C_25  and  N_28
REMARK                            x       y       z     vdW  Elec       q    Type
REMARK                         _______ _______ _______ _____ _____    ______ ____
ROOT
ATOM      1  C   UNL     1     -44.882 -18.939 -23.630  0.00  0.00    +0.000 A 
ATOM      2  C   UNL     1     -43.777 -19.669 -23.170  0.00  0.00    +0.000 A 
ATOM      3  C   UNL     1     -43.451 -19.679 -21.810  0.00  0.00    +0.000 A 
ATOM      4  C   UNL     1     -44.228 -18.948 -20.895  0.00  0.00    +0.000 A 
ATOM      5  C   UNL     1     -43.870 -18.980 -19.541  0.00  0.00    +0.000 A 
ATOM      6  N   UNL     1     -42.786 -19.715 -19.140  0.00  0.00    +0.000 N 
ATOM      7  C   UNL     1     -42.051 -20.425 -20.056  0.00  0.00    +0.000 A 
ATOM      8  N   UNL     1     -42.387 -20.394 -21.373  0.00  0.00    +0.000 NA
ATOM      9  C   UNL     1     -40.853 -21.228 -19.645  0.00  0.00    +0.000 C 
ATOM     10  C   UNL     1     -39.590 -20.375 -19.641  0.00  0.00    +0.000 C 
ATOM     11  C   UNL     1     -39.433 -19.603 -18.338  0.00  0.00    +0.000 C 
ATOM     12  C   UNL     1     -40.321 -18.367 -18.336  0.00  0.00    +0.000 C 
ATOM     13  C   UNL     1     -41.510 -18.524 -17.391  0.00  0.00    +0.000 C 
ATOM     14  C   UNL     1     -42.392 -19.726 -17.729  0.00  0.00    +0.000 C 
ATOM     15  O   UNL     1     -44.546 -18.331 -18.694  0.00  0.00    +0.000 OA
ATOM     16  C   UNL     1     -45.324 -18.206 -21.354  0.00  0.00    +0.000 A 
ATOM     17  C   UNL     1     -45.645 -18.200 -22.714  0.00  0.00    +0.000 A 
ENDROOT
BRANCH   1  19
ATOM     18  N   UNL     1     -44.601 -17.988 -25.978  0.00  0.00    +0.000 N 
ATOM     19  C   UNL     1     -45.205 -18.921 -25.072  0.00  0.00    +0.000 C 
ATOM     20  O   UNL     1     -45.999 -19.783 -25.536  0.00  0.00    +0.000 OA
ATOM     21  H   UNL     1     -44.366 -18.321 -26.874  0.00  0.00    +0.000 HD
BRANCH  18  23
ATOM     22  C   UNL     1     -43.000 -16.242 -25.341  0.00  0.00    +0.000 A 
ATOM     23  C   UNL     1     -44.307 -16.612 -25.695  0.00  0.00    +0.000 A 
ATOM     24  C   UNL     1     -45.296 -15.624 -25.824  0.00  0.00    +0.000 A 
ATOM     25  C   UNL     1     -45.004 -14.278 -25.574  0.00  0.00    +0.000 A 
ATOM     26  C   UNL     1     -43.702 -13.918 -25.207  0.00  0.00    +0.000 A 
ATOM     27  C   UNL     1     -42.707 -14.891 -25.095  0.00  0.00    +0.000 A 
BRANCH  25  28
ATOM     28  N   UNL     1     -46.031 -13.285 -25.694  0.00  0.00    +0.000 N 
ATOM     29  O   UNL     1     -46.912 -13.320 -26.751  0.00  0.00    +0.000 OA
ATOM     30  O   UNL     1     -46.143 -12.382 -24.839  0.00  0.00    +0.000 OA
ENDBRANCH  25  28
BRANCH  22  32
ATOM     31  C   UNL     1     -41.079 -17.273 -24.168  0.00  0.00    +0.000 C 
ATOM     32  O   UNL     1     -42.013 -17.228 -25.239  0.00  0.00    +0.000 OA
ENDBRANCH  22  32
ENDBRANCH  18  23
ENDBRANCH   1  19
TORSDOF 4
ENDMDL
MODEL 2
REMARK VINA RESULT:      -6.5      9.249     13.560
REMARK  Name = ZINC000012772569 CSC027018696 MCULE-2308435649 MolPort-005-665-378
REMARK  4 active torsions:
REMARK  status: ('A' for Active; 'I' for Inactive)
REMARK    1  A    between atoms: C_1  and  C_19
REMARK    2  A    between atoms: N_18  and  C_23
REMARK    3  A    between atoms: C_22  and  O_32
REMARK    4  A    between atoms: C_25  and  N_28
REMARK                            x       y       z     vdW  Elec       q    Type
REMARK                         _______ _______ _______ _____ _____    ______ ____
ROOT
ATOM      1  C   UNL     1     -46.324  -6.013 -28.469  0.00  0.00    +0.000 A 
ATOM      2  C   UNL     1     -46.945  -7.265 -28.350  0.00  0.00    +0.000 A 
ATOM      3  C   UNL     1     -46.180  -8.420 -28.167  0.00  0.00    +0.000 A 
ATOM      4  C   UNL     1     -44.778  -8.334 -28.111  0.00  0.00    +0.000 A 
ATOM      5  C   UNL     1     -44.043  -9.513 -27.928  0.00  0.00    +0.000 A 
ATOM      6  N   UNL     1     -44.698 -10.711 -27.808  0.00  0.00    +0.000 N 
ATOM      7  C   UNL     1     -46.068 -10.762 -27.860  0.00  0.00    +0.000 A 
ATOM      8  N   UNL     1     -46.788  -9.624 -28.044  0.00  0.00    +0.000 NA
ATOM      9  C   UNL     1     -46.806 -12.062 -27.743  0.00  0.00    +0.000 C 
ATOM     10  C   UNL     1     -46.963 -12.733 -29.102  0.00  0.00    +0.000 C 
ATOM     11  C   UNL     1     -45.731 -13.547 -29.476  0.00  0.00    +0.000 C 
ATOM     12  C   UNL     1     -44.628 -12.641 -30.002  0.00  0.00    +0.000 C 
ATOM     13  C   UNL     1     -43.483 -12.502 -29.001  0.00  0.00    +0.000 C 
ATOM     14  C   UNL     1     -43.930 -11.948 -27.648  0.00  0.00    +0.000 C 
ATOM     15  O   UNL     1     -42.782  -9.469 -27.876  0.00  0.00    +0.000 OA
ATOM     16  C   UNL     1     -44.154  -7.086 -28.245  0.00  0.00    +0.000 A 
ATOM     17  C   UNL     1     -44.925  -5.934 -28.427  0.00  0.00    +0.000 A 
ENDROOT
BRANCH   1  19
ATOM     18  N   UNL     1     -47.312  -4.211 -29.978  0.00  0.00    +0.000 N 
ATOM     19  C   UNL     1     -47.143  -4.801 -28.681  0.00  0.00    +0.000 C 
ATOM     20  O   UNL     1     -47.756  -4.293 -27.705  0.00  0.00    +0.000 OA
ATOM     21  H   UNL     1     -48.203  -3.851 -30.194  0.00  0.00    +0.000 HD
BRANCH  18  23
ATOM     22  C   UNL     1     -46.167  -5.109 -31.952  0.00  0.00    +0.000 A 
ATOM     23  C   UNL     1     -46.299  -4.097 -30.988  0.00  0.00    +0.000 A 
ATOM     24  C   UNL     1     -45.478  -2.961 -31.058  0.00  0.00    +0.000 A 
ATOM     25  C   UNL     1     -44.507  -2.836 -32.059  0.00  0.00    +0.000 A 
ATOM     26  C   UNL     1     -44.371  -3.856 -33.009  0.00  0.00    +0.000 A 
ATOM     27  C   UNL     1     -45.195  -4.982 -32.958  0.00  0.00    +0.000 A 
BRANCH  25  28
ATOM     28  N   UNL     1     -43.666  -1.677 -32.106  0.00  0.00    +0.000 N 
ATOM     29  O   UNL     1     -44.216  -0.425 -32.260  0.00  0.00    +0.000 OA
ATOM     30  O   UNL     1     -42.427  -1.787 -32.001  0.00  0.00    +0.000 OA
ENDBRANCH  25  28
BRANCH  22  32
ATOM     31  C   UNL     1     -46.535  -7.553 -32.096  0.00  0.00    +0.000 C 
ATOM     32  O   UNL     1     -47.005  -6.227 -31.891  0.00  0.00    +0.000 OA
ENDBRANCH  22  32
ENDBRANCH  18  23
ENDBRANCH   1  19
TORSDOF 4
ENDMDL
MODEL 3
REMARK VINA RESULT:      -6.4      9.256     14.941
REMARK  Name = ZINC000012772569 CSC027018696 MCULE-2308435649 MolPort-005-665-378
REMARK  4 active torsions:
REMARK  status: ('A' for Active; 'I' for Inactive)
REMARK    1  A    between atoms: C_1  and  C_19
REMARK    2  A    between atoms: N_18  and  C_23
REMARK    3  A    between atoms: C_22  and  O_32
REMARK    4  A    between atoms: C_25  and  N_28
REMARK                            x       y       z     vdW  Elec       q    Type
REMARK                         _______ _______ _______ _____ _____    ______ ____
ROOT
ATOM      1  C   UNL     1     -45.723  -9.232 -32.777  0.00  0.00    +0.000 A 
ATOM      2  C   UNL     1     -44.669  -8.309 -32.830  0.00  0.00    +0.000 A 
ATOM      3  C   UNL     1     -44.855  -6.996 -32.389  0.00  0.00    +0.000 A 
ATOM      4  C   UNL     1     -46.108  -6.589 -31.896  0.00  0.00    +0.000 A 
ATOM      5  C   UNL     1     -46.257  -5.265 -31.464  0.00  0.00    +0.000 A 
ATOM      6  N   UNL     1     -45.194  -4.403 -31.528  0.00  0.00    +0.000 N 
ATOM      7  C   UNL     1     -43.982  -4.831 -32.008  0.00  0.00    +0.000 A 
ATOM      8  N   UNL     1     -43.830  -6.112 -32.435  0.00  0.00    +0.000 NA
ATOM      9  C   UNL     1     -42.806  -3.904 -32.100  0.00  0.00    +0.000 C 
ATOM     10  C   UNL     1     -42.799  -3.149 -33.423  0.00  0.00    +0.000 C 
ATOM     11  C   UNL     1     -43.683  -1.909 -33.370  0.00  0.00    +0.000 C 
ATOM     12  C   UNL     1     -45.147  -2.287 -33.543  0.00  0.00    +0.000 C 
ATOM     13  C   UNL     1     -45.925  -2.151 -32.236  0.00  0.00    +0.000 C 
ATOM     14  C   UNL     1     -45.357  -3.011 -31.106  0.00  0.00    +0.000 C 
ATOM     15  O   UNL     1     -47.371  -4.868 -31.018  0.00  0.00    +0.000 OA
ATOM     16  C   UNL     1     -47.167  -7.506 -31.856  0.00  0.00    +0.000 A 
ATOM     17  C   UNL     1     -46.974  -8.818 -32.297  0.00  0.00    +0.000 A 
ENDROOT
BRANCH   1  19
ATOM     18  N   UNL     1     -45.682 -11.754 -32.411  0.00  0.00    +0.000 N 
ATOM     19  C   UNL     1     -45.520 -10.612 -33.264  0.00  0.00    +0.000 C 
ATOM     20  O   UNL     1     -45.244 -10.803 -34.478  0.00  0.00    +0.000 OA
ATOM     21  H   UNL     1     -46.099 -12.553 -32.806  0.00  0.00    +0.000 HD
BRANCH  18  23
ATOM     22  C   UNL     1     -43.925 -11.878 -30.704  0.00  0.00    +0.000 A 
ATOM     23  C   UNL     1     -45.289 -11.836 -31.033  0.00  0.00    +0.000 A 
ATOM     24  C   UNL     1     -46.249 -11.818 -30.009  0.00  0.00    +0.000 A 
ATOM     25  C   UNL     1     -45.865 -11.870 -28.663  0.00  0.00    +0.000 A 
ATOM     26  C   UNL     1     -44.503 -11.926 -28.343  0.00  0.00    +0.000 A 
ATOM     27  C   UNL     1     -43.541 -11.927 -29.354  0.00  0.00    +0.000 A 
BRANCH  25  28
ATOM     28  N   UNL     1     -46.860 -11.868 -27.631  0.00  0.00    +0.000 N 
ATOM     29  O   UNL     1     -47.094 -10.728 -26.896  0.00  0.00    +0.000 OA
ATOM     30  O   UNL     1     -47.528 -12.894 -27.390  0.00  0.00    +0.000 OA
ENDBRANCH  25  28
BRANCH  22  32
ATOM     31  C   UNL     1     -42.010 -10.834 -31.877  0.00  0.00    +0.000 C 
ATOM     32  O   UNL     1     -42.972 -11.870 -31.728  0.00  0.00    +0.000 OA
ENDBRANCH  22  32
ENDBRANCH  18  23
ENDBRANCH   1  19
TORSDOF 4
ENDMDL
