MODEL 1
REMARK VINA RESULT:      -7.6      0.000      0.000
REMARK  Name = ZINC000031809026
REMARK  1 active torsions:
REMARK  status: ('A' for Active; 'I' for Inactive)
REMARK    1  A    between atoms: C_7  and  C_24
REMARK                            x       y       z     vdW  Elec       q    Type
REMARK                         _______ _______ _______ _____ _____    ______ ____
ROOT
ATOM      1  C   UNL     1     -47.557  -3.735 -33.709  0.00  0.00    +0.000 C 
ATOM      2  C   UNL     1     -46.923  -4.865 -34.444  0.00  0.00    +0.000 A 
ATOM      3  N   UNL     1     -47.452  -5.377 -35.568  0.00  0.00    +0.000 NA
ATOM      4  N   UNL     1     -46.698  -6.391 -35.947  0.00  0.00    +0.000 N 
ATOM      5  C   UNL     1     -45.678  -6.554 -35.074  0.00  0.00    +0.000 A 
ATOM      6  C   UNL     1     -45.757  -5.553 -34.094  0.00  0.00    +0.000 A 
ATOM      7  C   UNL     1     -44.890  -5.270 -32.874  0.00  0.00    +0.000 C 
ATOM      8  S   UNL     1     -43.209  -5.962 -32.923  0.00  0.00    +0.000 S 
ATOM      9  C   UNL     1     -43.792  -7.668 -32.879  0.00  0.00    +0.000 C 
ATOM     10  C   UNL     1     -43.813  -8.147 -34.280  0.00  0.00    +0.000 C 
ATOM     11  O   UNL     1     -43.025  -9.062 -34.622  0.00  0.00    +0.000 OA
ATOM     12  N   UNL     1     -44.665  -7.555 -35.262  0.00  0.00    +0.000 N 
ATOM     13  H   UNL     1     -44.542  -7.874 -36.185  0.00  0.00    +0.000 HD
ATOM     14  C   UNL     1     -46.985  -7.168 -37.119  0.00  0.00    +0.000 A 
ATOM     15  N   UNL     1     -47.393  -6.547 -38.267  0.00  0.00    +0.000 NA
ATOM     16  C   UNL     1     -47.727  -7.258 -39.389  0.00  0.00    +0.000 A 
ATOM     17  N   UNL     1     -47.669  -8.624 -39.387  0.00  0.00    +0.000 NA
ATOM     18  C   UNL     1     -47.259  -9.242 -38.254  0.00  0.00    +0.000 A 
ATOM     19  N   UNL     1     -47.217 -10.562 -38.037  0.00  0.00    +0.000 N 
ATOM     20  C   UNL     1     -46.832 -10.634 -36.734  0.00  0.00    +0.000 A 
ATOM     21  N   UNL     1     -46.657  -9.422 -36.142  0.00  0.00    +0.000 NA
ATOM     22  C   UNL     1     -46.926  -8.561 -37.135  0.00  0.00    +0.000 A 
ATOM     23  H   UNL     1     -47.413 -11.296 -38.663  0.00  0.00    +0.000 HD
ENDROOT
BRANCH   7  24
ATOM     24  C   UNL     1     -44.770  -3.799 -32.560  0.00  0.00    +0.000 A 
ATOM     25  C   UNL     1     -44.097  -2.986 -33.486  0.00  0.00    +0.000 A 
ATOM     26  C   UNL     1     -43.969  -1.614 -33.262  0.00  0.00    +0.000 A 
ATOM     27  C   UNL     1     -44.513  -1.036 -32.114  0.00  0.00    +0.000 A 
ATOM     28  F   UNL     1     -44.380   0.294 -31.896  0.00  0.00    +0.000 F 
ATOM     29  C   UNL     1     -45.179  -1.833 -31.185  0.00  0.00    +0.000 A 
ATOM     30  C   UNL     1     -45.316  -3.208 -31.393  0.00  0.00    +0.000 A 
ATOM     31 CL   UNL     1     -46.168  -4.135 -30.167  0.00  0.00    +0.000 Cl
ENDBRANCH   7  24
TORSDOF 1
ENDMDL
MODEL 2
REMARK VINA RESULT:      -6.7      5.593      8.030
REMARK  Name = ZINC000031809026
REMARK  1 active torsions:
REMARK  status: ('A' for Active; 'I' for Inactive)
REMARK    1  A    between atoms: C_7  and  C_24
REMARK                            x       y       z     vdW  Elec       q    Type
REMARK                         _______ _______ _______ _____ _____    ______ ____
ROOT
ATOM      1  C   UNL     1     -43.217  -6.883 -27.992  0.00  0.00    +0.000 C 
ATOM      2  C   UNL     1     -43.512  -6.133 -29.245  0.00  0.00    +0.000 A 
ATOM      3  N   UNL     1     -42.565  -5.454 -29.915  0.00  0.00    +0.000 NA
ATOM      4  N   UNL     1     -43.143  -4.858 -30.940  0.00  0.00    +0.000 N 
ATOM      5  C   UNL     1     -44.466  -5.135 -30.945  0.00  0.00    +0.000 A 
ATOM      6  C   UNL     1     -44.752  -6.000 -29.878  0.00  0.00    +0.000 A 
ATOM      7  C   UNL     1     -46.063  -6.614 -29.404  0.00  0.00    +0.000 C 
ATOM      8  S   UNL     1     -47.389  -6.698 -30.647  0.00  0.00    +0.000 S 
ATOM      9  C   UNL     1     -47.553  -4.905 -30.752  0.00  0.00    +0.000 C 
ATOM     10  C   UNL     1     -46.758  -4.474 -31.924  0.00  0.00    +0.000 C 
ATOM     11  O   UNL     1     -47.352  -3.981 -32.915  0.00  0.00    +0.000 OA
ATOM     12  N   UNL     1     -45.342  -4.658 -31.979  0.00  0.00    +0.000 N 
ATOM     13  H   UNL     1     -44.913  -4.428 -32.834  0.00  0.00    +0.000 HD
ATOM     14  C   UNL     1     -42.412  -4.042 -31.867  0.00  0.00    +0.000 A 
ATOM     15  N   UNL     1     -41.178  -4.441 -32.303  0.00  0.00    +0.000 NA
ATOM     16  C   UNL     1     -40.428  -3.664 -33.145  0.00  0.00    +0.000 A 
ATOM     17  N   UNL     1     -40.895  -2.451 -33.570  0.00  0.00    +0.000 NA
ATOM     18  C   UNL     1     -42.118  -2.055 -33.145  0.00  0.00    +0.000 A 
ATOM     19  N   UNL     1     -42.702  -0.876 -33.387  0.00  0.00    +0.000 N 
ATOM     20  C   UNL     1     -43.851  -0.963 -32.663  0.00  0.00    +0.000 A 
ATOM     21  N   UNL     1     -43.985  -2.131 -31.978  0.00  0.00    +0.000 NA
ATOM     22  C   UNL     1     -42.876  -2.804 -32.313  0.00  0.00    +0.000 A 
ATOM     23  H   UNL     1     -42.381  -0.133 -33.947  0.00  0.00    +0.000 HD
ENDROOT
BRANCH   7  24
ATOM     24  C   UNL     1     -45.894  -7.994 -28.820  0.00  0.00    +0.000 A 
ATOM     25  C   UNL     1     -45.523  -9.032 -29.690  0.00  0.00    +0.000 A 
ATOM     26  C   UNL     1     -45.333 -10.328 -29.208  0.00  0.00    +0.000 A 
ATOM     27  C   UNL     1     -45.508 -10.605 -27.852  0.00  0.00    +0.000 A 
ATOM     28  F   UNL     1     -45.331 -11.865 -27.388  0.00  0.00    +0.000 F 
ATOM     29  C   UNL     1     -45.882  -9.585 -26.977  0.00  0.00    +0.000 A 
ATOM     30  C   UNL     1     -46.076  -8.282 -27.444  0.00  0.00    +0.000 A 
ATOM     31 CL   UNL     1     -46.550  -7.062 -26.272  0.00  0.00    +0.000 Cl
ENDBRANCH   7  24
TORSDOF 1
ENDMDL
MODEL 3
REMARK VINA RESULT:      -6.6     13.385     15.543
REMARK  Name = ZINC000031809026
REMARK  1 active torsions:
REMARK  status: ('A' for Active; 'I' for Inactive)
REMARK    1  A    between atoms: C_7  and  C_24
REMARK                            x       y       z     vdW  Elec       q    Type
REMARK                         _______ _______ _______ _____ _____    ______ ____
ROOT
ATOM      1  C   UNL     1     -46.570 -15.397 -20.726  0.00  0.00    +0.000 C 
ATOM      2  C   UNL     1     -46.109 -14.952 -22.071  0.00  0.00    +0.000 A 
ATOM      3  N   UNL     1     -46.267 -13.689 -22.502  0.00  0.00    +0.000 NA
ATOM      4  N   UNL     1     -45.812 -13.623 -23.739  0.00  0.00    +0.000 N 
ATOM      5  C   UNL     1     -45.362 -14.838 -24.127  0.00  0.00    +0.000 A 
ATOM      6  C   UNL     1     -45.497 -15.734 -23.056  0.00  0.00    +0.000 A 
ATOM      7  C   UNL     1     -45.169 -17.217 -22.938  0.00  0.00    +0.000 C 
ATOM      8  S   UNL     1     -43.957 -17.854 -24.135  0.00  0.00    +0.000 S 
ATOM      9  C   UNL     1     -45.042 -17.575 -25.549  0.00  0.00    +0.000 C 
ATOM     10  C   UNL     1     -44.644 -16.279 -26.141  0.00  0.00    +0.000 C 
ATOM     11  O   UNL     1     -44.143 -16.263 -27.292  0.00  0.00    +0.000 OA
ATOM     12  N   UNL     1     -44.763 -15.054 -25.415  0.00  0.00    +0.000 N 
ATOM     13  H   UNL     1     -44.386 -14.257 -25.853  0.00  0.00    +0.000 HD
ATOM     14  C   UNL     1     -45.834 -12.408 -24.503  0.00  0.00    +0.000 A 
ATOM     15  N   UNL     1     -45.499 -11.222 -23.909  0.00  0.00    +0.000 NA
ATOM     16  C   UNL     1     -45.559 -10.036 -24.590  0.00  0.00    +0.000 A 
ATOM     17  N   UNL     1     -45.969 -10.004 -25.894  0.00  0.00    +0.000 NA
ATOM     18  C   UNL     1     -46.296 -11.177 -26.487  0.00  0.00    +0.000 A 
ATOM     19  N   UNL     1     -46.792 -11.335 -27.719  0.00  0.00    +0.000 N 
ATOM     20  C   UNL     1     -47.027 -12.675 -27.772  0.00  0.00    +0.000 A 
ATOM     21  N   UNL     1     -46.715 -13.336 -26.625  0.00  0.00    +0.000 NA
ATOM     22  C   UNL     1     -46.246 -12.360 -25.834  0.00  0.00    +0.000 A 
ATOM     23  H   UNL     1     -46.948 -10.655 -28.413  0.00  0.00    +0.000 HD
ENDROOT
BRANCH   7  24
ATOM     24  C   UNL     1     -44.703 -17.613 -21.560  0.00  0.00    +0.000 A 
ATOM     25  C   UNL     1     -45.461 -18.567 -20.862  0.00  0.00    +0.000 A 
ATOM     26  C   UNL     1     -45.073 -18.990 -19.590  0.00  0.00    +0.000 A 
ATOM     27  C   UNL     1     -43.922 -18.468 -18.998  0.00  0.00    +0.000 A 
ATOM     28  F   UNL     1     -43.551 -18.874 -17.761  0.00  0.00    +0.000 F 
ATOM     29  C   UNL     1     -43.162 -17.516 -19.677  0.00  0.00    +0.000 A 
ATOM     30  C   UNL     1     -43.538 -17.082 -20.951  0.00  0.00    +0.000 A 
ATOM     31 CL   UNL     1     -42.524 -15.877 -21.731  0.00  0.00    +0.000 Cl
ENDBRANCH   7  24
TORSDOF 1
ENDMDL
