MODEL 1
REMARK VINA RESULT:      -7.9      0.000      0.000
REMARK  Name = ZINC000040009606 ZINC40009606 CSC027005518 MCULE-5704859829 MolPort-009-402-766 PubChem-45858595
REMARK  3 active torsions:
REMARK  status: ('A' for Active; 'I' for Inactive)
REMARK    1  A    between atoms: C_1  and  C_2
REMARK    2  A    between atoms: C_1  and  C_16
REMARK    3  A    between atoms: C_16  and  C_26
REMARK                            x       y       z     vdW  Elec       q    Type
REMARK                         _______ _______ _______ _____ _____    ______ ____
ROOT
ATOM      1  C   UNL     1     -47.281  -5.092 -31.194  0.00  0.00    +0.000 C 
ENDROOT
BRANCH   1   2
ATOM      2  C   UNL     1     -46.925  -4.598 -29.829  0.00  0.00    +0.000 C 
ATOM      3  O   UNL     1     -46.574  -3.395 -29.703  0.00  0.00    +0.000 OA
ATOM      4  N   UNL     1     -46.939  -5.480 -28.687  0.00  0.00    +0.000 N 
ATOM      5  C   UNL     1     -46.931  -6.929 -28.926  0.00  0.00    +0.000 C 
ATOM      6  C   UNL     1     -46.197  -7.663 -27.845  0.00  0.00    +0.000 C 
ATOM      7  O   UNL     1     -45.688  -8.789 -28.085  0.00  0.00    +0.000 OA
ATOM      8  N   UNL     1     -46.138  -7.122 -26.526  0.00  0.00    +0.000 N 
ATOM      9  C   UNL     1     -46.624  -5.806 -26.264  0.00  0.00    +0.000 A 
ATOM     10  C   UNL     1     -46.685  -5.338 -24.948  0.00  0.00    +0.000 A 
ATOM     11  C   UNL     1     -47.160  -4.051 -24.684  0.00  0.00    +0.000 A 
ATOM     12  C   UNL     1     -47.572  -3.229 -25.736  0.00  0.00    +0.000 A 
ATOM     13  C   UNL     1     -47.504  -3.691 -27.053  0.00  0.00    +0.000 A 
ATOM     14  C   UNL     1     -47.023  -4.981 -27.332  0.00  0.00    +0.000 A 
ATOM     15  H   UNL     1     -45.759  -7.659 -25.793  0.00  0.00    +0.000 HD
ENDBRANCH   1   2
BRANCH   1  16
ATOM     16  C   UNL     1     -46.021  -5.425 -31.973  0.00  0.00    +0.000 C 
BRANCH  16  26
ATOM     17  C   UNL     1     -40.989  -0.147 -32.579  0.00  0.00    +0.000 C 
ATOM     18  C   UNL     1     -42.188  -1.021 -32.672  0.00  0.00    +0.000 A 
ATOM     19  N   UNL     1     -42.299  -2.201 -32.020  0.00  0.00    +0.000 NA
ATOM     20  N   UNL     1     -43.485  -2.681 -32.342  0.00  0.00    +0.000 N 
ATOM     21  C   UNL     1     -44.107  -1.835 -33.169  0.00  0.00    +0.000 A 
ATOM     22  C   UNL     1     -43.324  -0.730 -33.430  0.00  0.00    +0.000 A 
ATOM     23  N   UNL     1     -45.346  -2.095 -33.649  0.00  0.00    +0.000 NA
ATOM     24  C   UNL     1     -45.974  -3.248 -33.278  0.00  0.00    +0.000 A 
ATOM     25  C   UNL     1     -47.339  -3.521 -33.815  0.00  0.00    +0.000 C 
ATOM     26  C   UNL     1     -45.334  -4.164 -32.404  0.00  0.00    +0.000 A 
ATOM     27  C   UNL     1     -44.044  -3.846 -31.928  0.00  0.00    +0.000 A 
ATOM     28  C   UNL     1     -43.301  -4.755 -31.001  0.00  0.00    +0.000 C 
ENDBRANCH  16  26
ENDBRANCH   1  16
TORSDOF 3
ENDMDL
MODEL 2
REMARK VINA RESULT:      -7.5     11.303     16.023
REMARK  Name = ZINC000040009606 ZINC40009606 CSC027005518 MCULE-5704859829 MolPort-009-402-766 PubChem-45858595
REMARK  3 active torsions:
REMARK  status: ('A' for Active; 'I' for Inactive)
REMARK    1  A    between atoms: C_1  and  C_2
REMARK    2  A    between atoms: C_1  and  C_16
REMARK    3  A    between atoms: C_16  and  C_26
REMARK                            x       y       z     vdW  Elec       q    Type
REMARK                         _______ _______ _______ _____ _____    ______ ____
ROOT
ATOM      1  C   UNL     1     -44.930 -16.451 -23.431  0.00  0.00    +0.000 C 
ENDROOT
BRANCH   1   2
ATOM      2  C   UNL     1     -45.565 -15.889 -24.662  0.00  0.00    +0.000 C 
ATOM      3  O   UNL     1     -46.812 -15.708 -24.660  0.00  0.00    +0.000 OA
ATOM      4  N   UNL     1     -44.785 -15.598 -25.840  0.00  0.00    +0.000 N 
ATOM      5  C   UNL     1     -43.452 -16.203 -25.961  0.00  0.00    +0.000 C 
ATOM      6  C   UNL     1     -43.103 -16.491 -27.390  0.00  0.00    +0.000 C 
ATOM      7  O   UNL     1     -42.267 -17.391 -27.662  0.00  0.00    +0.000 OA
ATOM      8  N   UNL     1     -43.663 -15.699 -28.436  0.00  0.00    +0.000 N 
ATOM      9  C   UNL     1     -44.684 -14.743 -28.150  0.00  0.00    +0.000 A 
ATOM     10  C   UNL     1     -45.128 -13.881 -29.157  0.00  0.00    +0.000 A 
ATOM     11  C   UNL     1     -46.127 -12.943 -28.885  0.00  0.00    +0.000 A 
ATOM     12  C   UNL     1     -46.685 -12.868 -27.606  0.00  0.00    +0.000 A 
ATOM     13  C   UNL     1     -46.249 -13.735 -26.600  0.00  0.00    +0.000 A 
ATOM     14  C   UNL     1     -45.249 -14.686 -26.863  0.00  0.00    +0.000 A 
ATOM     15  H   UNL     1     -43.343 -15.812 -29.361  0.00  0.00    +0.000 HD
ENDBRANCH   1   2
BRANCH   1  16
ATOM     16  C   UNL     1     -45.590 -17.766 -23.057  0.00  0.00    +0.000 C 
BRANCH  16  26
ATOM     17  C   UNL     1     -40.307 -22.317 -20.839  0.00  0.00    +0.000 C 
ATOM     18  C   UNL     1     -41.354 -21.567 -21.582  0.00  0.00    +0.000 A 
ATOM     19  N   UNL     1     -42.067 -20.555 -21.041  0.00  0.00    +0.000 NA
ATOM     20  N   UNL     1     -42.886 -20.142 -21.989  0.00  0.00    +0.000 N 
ATOM     21  C   UNL     1     -42.699 -20.868 -23.097  0.00  0.00    +0.000 A 
ATOM     22  C   UNL     1     -41.716 -21.816 -22.908  0.00  0.00    +0.000 A 
ATOM     23  N   UNL     1     -43.418 -20.643 -24.221  0.00  0.00    +0.000 NA
ATOM     24  C   UNL     1     -44.355 -19.653 -24.225  0.00  0.00    +0.000 A 
ATOM     25  C   UNL     1     -45.140 -19.417 -25.471  0.00  0.00    +0.000 C 
ATOM     26  C   UNL     1     -44.577 -18.871 -23.061  0.00  0.00    +0.000 A 
ATOM     27  C   UNL     1     -43.799 -19.141 -21.915  0.00  0.00    +0.000 A 
ATOM     28  C   UNL     1     -43.966 -18.361 -20.649  0.00  0.00    +0.000 C 
ENDBRANCH  16  26
ENDBRANCH   1  16
TORSDOF 3
ENDMDL
MODEL 3
REMARK VINA RESULT:      -7.4      3.153      7.421
REMARK  Name = ZINC000040009606 ZINC40009606 CSC027005518 MCULE-5704859829 MolPort-009-402-766 PubChem-45858595
REMARK  3 active torsions:
REMARK  status: ('A' for Active; 'I' for Inactive)
REMARK    1  A    between atoms: C_1  and  C_2
REMARK    2  A    between atoms: C_1  and  C_16
REMARK    3  A    between atoms: C_16  and  C_26
REMARK                            x       y       z     vdW  Elec       q    Type
REMARK                         _______ _______ _______ _____ _____    ______ ____
ROOT
ATOM      1  C   UNL     1     -46.164  -5.574 -29.711  0.00  0.00    +0.000 C 
ENDROOT
BRANCH   1   2
ATOM      2  C   UNL     1     -45.953  -4.425 -30.644  0.00  0.00    +0.000 C 
ATOM      3  O   UNL     1     -46.895  -3.604 -30.802  0.00  0.00    +0.000 OA
ATOM      4  N   UNL     1     -44.720  -4.276 -31.379  0.00  0.00    +0.000 N 
ATOM      5  C   UNL     1     -43.836  -5.442 -31.502  0.00  0.00    +0.000 C 
ATOM      6  C   UNL     1     -43.095  -5.440 -32.804  0.00  0.00    +0.000 C 
ATOM      7  O   UNL     1     -42.677  -6.523 -33.290  0.00  0.00    +0.000 OA
ATOM      8  N   UNL     1     -42.800  -4.206 -33.456  0.00  0.00    +0.000 N 
ATOM      9  C   UNL     1     -43.351  -2.983 -32.970  0.00  0.00    +0.000 A 
ATOM     10  C   UNL     1     -42.949  -1.767 -33.533  0.00  0.00    +0.000 A 
ATOM     11  C   UNL     1     -43.484  -0.566 -33.061  0.00  0.00    +0.000 A 
ATOM     12  C   UNL     1     -44.424  -0.579 -32.027  0.00  0.00    +0.000 A 
ATOM     13  C   UNL     1     -44.835  -1.792 -31.469  0.00  0.00    +0.000 A 
ATOM     14  C   UNL     1     -44.308  -3.007 -31.938  0.00  0.00    +0.000 A 
ATOM     15  H   UNL     1     -42.213  -4.198 -34.247  0.00  0.00    +0.000 HD
ENDBRANCH   1   2
BRANCH   1  16
ATOM     16  C   UNL     1     -47.371  -6.386 -30.149  0.00  0.00    +0.000 C 
BRANCH  16  26
ATOM     17  C   UNL     1     -45.546 -13.456 -29.672  0.00  0.00    +0.000 C 
ATOM     18  C   UNL     1     -45.850 -12.065 -30.101  0.00  0.00    +0.000 A 
ATOM     19  N   UNL     1     -46.264 -11.100 -29.250  0.00  0.00    +0.000 NA
ATOM     20  N   UNL     1     -46.429 -10.017 -29.986  0.00  0.00    +0.000 N 
ATOM     21  C   UNL     1     -46.129 -10.285 -31.261  0.00  0.00    +0.000 A 
ATOM     22  C   UNL     1     -45.743 -11.600 -31.413  0.00  0.00    +0.000 A 
ATOM     23  N   UNL     1     -46.216  -9.338 -32.224  0.00  0.00    +0.000 NA
ATOM     24  C   UNL     1     -46.618  -8.079 -31.884  0.00  0.00    +0.000 A 
ATOM     25  C   UNL     1     -46.709  -7.046 -32.956  0.00  0.00    +0.000 C 
ATOM     26  C   UNL     1     -46.946  -7.770 -30.539  0.00  0.00    +0.000 A 
ATOM     27  C   UNL     1     -46.836  -8.791 -29.571  0.00  0.00    +0.000 A 
ATOM     28  C   UNL     1     -47.158  -8.547 -28.130  0.00  0.00    +0.000 C 
ENDBRANCH  16  26
ENDBRANCH   1  16
TORSDOF 3
ENDMDL
