MODEL 1
REMARK VINA RESULT:      -6.3      0.000      0.000
REMARK  Name = ZINC000005372519 ZINC05372519 PubChem-92261928
REMARK  9 active torsions:
REMARK  status: ('A' for Active; 'I' for Inactive)
REMARK    1  A    between atoms: N_14  and  C_20
REMARK    2  A    between atoms: C_20  and  C_21
REMARK    3  A    between atoms: C_21  and  O_22
REMARK    4  A    between atoms: C_21  and  C_24
REMARK    5  A    between atoms: C_24  and  O_25
REMARK    6  A    between atoms: C_24  and  C_27
REMARK    7  A    between atoms: C_27  and  O_28
REMARK    8  A    between atoms: C_27  and  C_30
REMARK    9  A    between atoms: C_30  and  O_31
REMARK                            x       y       z     vdW  Elec       q    Type
REMARK                         _______ _______ _______ _____ _____    ______ ____
ROOT
ATOM      1  C   UNL     1     -43.552 -18.975 -25.768  0.00  0.00    +0.000 C 
ATOM      2  C   UNL     1     -43.930 -18.728 -24.347  0.00  0.00    +0.000 A 
ATOM      3  C   UNL     1     -44.596 -17.543 -24.026  0.00  0.00    +0.000 A 
ATOM      4  C   UNL     1     -44.970 -17.274 -22.708  0.00  0.00    +0.000 A 
ATOM      5  C   UNL     1     -45.615 -16.076 -22.422  0.00  0.00    +0.000 A 
ATOM      6  C   UNL     1     -45.978 -15.780 -21.114  0.00  0.00    +0.000 A 
ATOM      7  C   UNL     1     -46.611 -14.582 -20.762  0.00  0.00    +0.000 A 
ATOM      8  O   UNL     1     -46.890 -13.719 -21.638  0.00  0.00    +0.000 OA
ATOM      9  N   UNL     1     -46.923 -14.339 -19.461  0.00  0.00    +0.000 N 
ATOM     10  C   UNL     1     -46.643 -15.220 -18.461  0.00  0.00    +0.000 A 
ATOM     11  O   UNL     1     -46.955 -14.935 -17.276  0.00  0.00    +0.000 OA
ATOM     12  C   UNL     1     -46.016 -16.436 -18.736  0.00  0.00    +0.000 A 
ATOM     13  C   UNL     1     -45.671 -16.766 -20.052  0.00  0.00    +0.000 A 
ATOM     14  N   UNL     1     -45.060 -17.953 -20.375  0.00  0.00    +0.000 N 
ATOM     15  C   UNL     1     -44.685 -18.205 -21.676  0.00  0.00    +0.000 A 
ATOM     16  C   UNL     1     -43.997 -19.384 -22.015  0.00  0.00    +0.000 A 
ATOM     17  C   UNL     1     -43.622 -19.650 -23.334  0.00  0.00    +0.000 A 
ATOM     18  C   UNL     1     -42.911 -20.927 -23.628  0.00  0.00    +0.000 C 
ATOM     19  H   UNL     1     -47.370 -13.493 -19.233  0.00  0.00    +0.000 HD
ENDROOT
BRANCH  14  20
ATOM     20  C   UNL     1     -44.788 -18.942 -19.317  0.00  0.00    +0.000 C 
BRANCH  20  21
ATOM     21  C   UNL     1     -43.311 -18.966 -18.896  0.00  0.00    +0.000 C 
BRANCH  21  22
ATOM     22  O   UNL     1     -43.015 -17.880 -18.067  0.00  0.00    +0.000 OA
ATOM     23  H   UNL     1     -43.585 -17.908 -17.283  0.00  0.00    +0.000 HD
ENDBRANCH  21  22
BRANCH  21  24
ATOM     24  C   UNL     1     -42.922 -20.283 -18.224  0.00  0.00    +0.000 C 
BRANCH  24  25
ATOM     25  O   UNL     1     -43.997 -21.176 -18.273  0.00  0.00    +0.000 OA
ATOM     26  H   UNL     1     -43.663 -22.087 -18.245  0.00  0.00    +0.000 HD
ENDBRANCH  24  25
BRANCH  24  27
ATOM     27  C   UNL     1     -41.691 -20.908 -18.883  0.00  0.00    +0.000 C 
BRANCH  27  28
ATOM     28  O   UNL     1     -42.061 -21.670 -19.993  0.00  0.00    +0.000 OA
ATOM     29  H   UNL     1     -41.705 -22.567 -19.903  0.00  0.00    +0.000 HD
ENDBRANCH  27  28
BRANCH  27  30
ATOM     30  C   UNL     1     -40.932 -21.780 -17.896  0.00  0.00    +0.000 C 
BRANCH  30  31
ATOM     31  O   UNL     1     -41.556 -21.740 -16.649  0.00  0.00    +0.000 OA
ATOM     32  H   UNL     1     -41.675 -20.817 -16.376  0.00  0.00    +0.000 HD
ENDBRANCH  30  31
ENDBRANCH  27  30
ENDBRANCH  24  27
ENDBRANCH  21  24
ENDBRANCH  20  21
ENDBRANCH  14  20
TORSDOF 9
ENDMDL
MODEL 2
REMARK VINA RESULT:      -6.1      2.576      5.199
REMARK  Name = ZINC000005372519 ZINC05372519 PubChem-92261928
REMARK  9 active torsions:
REMARK  status: ('A' for Active; 'I' for Inactive)
REMARK    1  A    between atoms: N_14  and  C_20
REMARK    2  A    between atoms: C_20  and  C_21
REMARK    3  A    between atoms: C_21  and  O_22
REMARK    4  A    between atoms: C_21  and  C_24
REMARK    5  A    between atoms: C_24  and  O_25
REMARK    6  A    between atoms: C_24  and  C_27
REMARK    7  A    between atoms: C_27  and  O_28
REMARK    8  A    between atoms: C_27  and  C_30
REMARK    9  A    between atoms: C_30  and  O_31
REMARK                            x       y       z     vdW  Elec       q    Type
REMARK                         _______ _______ _______ _____ _____    ______ ____
ROOT
ATOM      1  C   UNL     1     -46.868 -12.513 -19.608  0.00  0.00    +0.000 C 
ATOM      2  C   UNL     1     -46.522 -13.776 -20.322  0.00  0.00    +0.000 A 
ATOM      3  C   UNL     1     -46.259 -13.721 -21.692  0.00  0.00    +0.000 A 
ATOM      4  C   UNL     1     -45.929 -14.879 -22.399  0.00  0.00    +0.000 A 
ATOM      5  C   UNL     1     -45.692 -14.791 -23.765  0.00  0.00    +0.000 A 
ATOM      6  C   UNL     1     -45.382 -15.936 -24.489  0.00  0.00    +0.000 A 
ATOM      7  C   UNL     1     -45.153 -15.912 -25.870  0.00  0.00    +0.000 A 
ATOM      8  O   UNL     1     -45.209 -14.830 -26.515  0.00  0.00    +0.000 OA
ATOM      9  N   UNL     1     -44.874 -17.069 -26.529  0.00  0.00    +0.000 N 
ATOM     10  C   UNL     1     -44.806 -18.275 -25.901  0.00  0.00    +0.000 A 
ATOM     11  O   UNL     1     -44.546 -19.310 -26.568  0.00  0.00    +0.000 OA
ATOM     12  C   UNL     1     -45.019 -18.376 -24.525  0.00  0.00    +0.000 A 
ATOM     13  C   UNL     1     -45.303 -17.229 -23.773  0.00  0.00    +0.000 A 
ATOM     14  N   UNL     1     -45.512 -17.275 -22.416  0.00  0.00    +0.000 N 
ATOM     15  C   UNL     1     -45.849 -16.129 -21.731  0.00  0.00    +0.000 A 
ATOM     16  C   UNL     1     -46.135 -16.167 -20.355  0.00  0.00    +0.000 A 
ATOM     17  C   UNL     1     -46.467 -15.007 -19.651  0.00  0.00    +0.000 A 
ATOM     18  C   UNL     1     -46.741 -15.115 -18.189  0.00  0.00    +0.000 C 
ATOM     19  H   UNL     1     -44.712 -17.032 -27.499  0.00  0.00    +0.000 HD
ENDROOT
BRANCH  14  20
ATOM     20  C   UNL     1     -45.401 -18.561 -21.707  0.00  0.00    +0.000 C 
BRANCH  20  21
ATOM     21  C   UNL     1     -43.958 -18.884 -21.291  0.00  0.00    +0.000 C 
BRANCH  21  22
ATOM     22  O   UNL     1     -43.091 -17.855 -21.672  0.00  0.00    +0.000 OA
ATOM     23  H   UNL     1     -42.642 -18.100 -22.495  0.00  0.00    +0.000 HD
ENDBRANCH  21  22
BRANCH  21  24
ATOM     24  C   UNL     1     -43.837 -19.169 -19.793  0.00  0.00    +0.000 C 
BRANCH  24  25
ATOM     25  O   UNL     1     -44.904 -19.970 -19.375  0.00  0.00    +0.000 OA
ATOM     26  H   UNL     1     -45.724 -19.660 -19.790  0.00  0.00    +0.000 HD
ENDBRANCH  24  25
BRANCH  24  27
ATOM     27  C   UNL     1     -42.508 -19.846 -19.456  0.00  0.00    +0.000 C 
BRANCH  27  28
ATOM     28  O   UNL     1     -42.146 -20.746 -20.461  0.00  0.00    +0.000 OA
ATOM     29  H   UNL     1     -41.268 -20.516 -20.801  0.00  0.00    +0.000 HD
ENDBRANCH  27  28
BRANCH  27  30
ATOM     30  C   UNL     1     -42.594 -20.576 -18.126  0.00  0.00    +0.000 C 
BRANCH  30  31
ATOM     31  O   UNL     1     -43.137 -21.847 -18.315  0.00  0.00    +0.000 OA
ATOM     32  H   UNL     1     -43.763 -22.041 -17.599  0.00  0.00    +0.000 HD
ENDBRANCH  30  31
ENDBRANCH  27  30
ENDBRANCH  24  27
ENDBRANCH  21  24
ENDBRANCH  20  21
ENDBRANCH  14  20
TORSDOF 9
ENDMDL
MODEL 3
REMARK VINA RESULT:      -6.1     13.519     17.154
REMARK  Name = ZINC000005372519 ZINC05372519 PubChem-92261928
REMARK  9 active torsions:
REMARK  status: ('A' for Active; 'I' for Inactive)
REMARK    1  A    between atoms: N_14  and  C_20
REMARK    2  A    between atoms: C_20  and  C_21
REMARK    3  A    between atoms: C_21  and  O_22
REMARK    4  A    between atoms: C_21  and  C_24
REMARK    5  A    between atoms: C_24  and  O_25
REMARK    6  A    between atoms: C_24  and  C_27
REMARK    7  A    between atoms: C_27  and  O_28
REMARK    8  A    between atoms: C_27  and  C_30
REMARK    9  A    between atoms: C_30  and  O_31
REMARK                            x       y       z     vdW  Elec       q    Type
REMARK                         _______ _______ _______ _____ _____    ______ ____
ROOT
ATOM      1  C   UNL     1     -45.719 -11.356 -33.324  0.00  0.00    +0.000 C 
ATOM      2  C   UNL     1     -45.989  -9.986 -32.800  0.00  0.00    +0.000 A 
ATOM      3  C   UNL     1     -45.993  -9.786 -31.419  0.00  0.00    +0.000 A 
ATOM      4  C   UNL     1     -46.239  -8.518 -30.886  0.00  0.00    +0.000 A 
ATOM      5  C   UNL     1     -46.253  -8.358 -29.506  0.00  0.00    +0.000 A 
ATOM      6  C   UNL     1     -46.516  -7.109 -28.956  0.00  0.00    +0.000 A 
ATOM      7  C   UNL     1     -46.564  -6.892 -27.574  0.00  0.00    +0.000 A 
ATOM      8  O   UNL     1     -46.355  -7.836 -26.765  0.00  0.00    +0.000 OA
ATOM      9  N   UNL     1     -46.847  -5.651 -27.095  0.00  0.00    +0.000 N 
ATOM     10  C   UNL     1     -47.094  -4.587 -27.907  0.00  0.00    +0.000 A 
ATOM     11  O   UNL     1     -47.353  -3.465 -27.402  0.00  0.00    +0.000 OA
ATOM     12  C   UNL     1     -47.060  -4.727 -29.295  0.00  0.00    +0.000 A 
ATOM     13  C   UNL     1     -46.767  -5.970 -29.868  0.00  0.00    +0.000 A 
ATOM     14  N   UNL     1     -46.714  -6.158 -31.228  0.00  0.00    +0.000 N 
ATOM     15  C   UNL     1     -46.482  -7.413 -31.744  0.00  0.00    +0.000 A 
ATOM     16  C   UNL     1     -46.492  -7.639 -33.132  0.00  0.00    +0.000 A 
ATOM     17  C   UNL     1     -46.247  -8.908 -33.662  0.00  0.00    +0.000 A 
ATOM     18  C   UNL     1     -46.256  -9.075 -35.143  0.00  0.00    +0.000 C 
ATOM     19  H   UNL     1     -46.874  -5.516 -26.120  0.00  0.00    +0.000 HD
ENDROOT
BRANCH  14  20
ATOM     20  C   UNL     1     -46.932  -5.012 -32.129  0.00  0.00    +0.000 C 
BRANCH  20  21
ATOM     21  C   UNL     1     -45.639  -4.240 -32.428  0.00  0.00    +0.000 C 
BRANCH  21  22
ATOM     22  O   UNL     1     -45.120  -4.606 -33.672  0.00  0.00    +0.000 OA
ATOM     23  H   UNL     1     -45.843  -4.678 -34.315  0.00  0.00    +0.000 HD
ENDBRANCH  21  22
BRANCH  21  24
ATOM     24  C   UNL     1     -45.839  -2.725 -32.348  0.00  0.00    +0.000 C 
BRANCH  24  25
ATOM     25  O   UNL     1     -46.936  -2.434 -31.532  0.00  0.00    +0.000 OA
ATOM     26  H   UNL     1     -47.433  -1.692 -31.911  0.00  0.00    +0.000 HD
ENDBRANCH  24  25
BRANCH  24  27
ATOM     27  C   UNL     1     -44.588  -2.021 -31.817  0.00  0.00    +0.000 C 
BRANCH  27  28
ATOM     28  O   UNL     1     -44.940  -0.900 -31.063  0.00  0.00    +0.000 OA
ATOM     29  H   UNL     1     -45.527  -1.167 -30.339  0.00  0.00    +0.000 HD
ENDBRANCH  27  28
BRANCH  27  30
ATOM     30  C   UNL     1     -43.677  -1.603 -32.959  0.00  0.00    +0.000 C 
BRANCH  30  31
ATOM     31  O   UNL     1     -44.393  -1.580 -34.155  0.00  0.00    +0.000 OA
ATOM     32  H   UNL     1     -43.945  -2.137 -34.812  0.00  0.00    +0.000 HD
ENDBRANCH  30  31
ENDBRANCH  27  30
ENDBRANCH  24  27
ENDBRANCH  21  24
ENDBRANCH  20  21
ENDBRANCH  14  20
TORSDOF 9
ENDMDL
