MODEL 1
REMARK VINA RESULT:      -5.9      0.000      0.000
REMARK  Name = ZINC000018195880 ZINC18195880
REMARK  2 active torsions:
REMARK  status: ('A' for Active; 'I' for Inactive)
REMARK    1  A    between atoms: C_6  and  C_21
REMARK    2  A    between atoms: C_11  and  O_12
REMARK                            x       y       z     vdW  Elec       q    Type
REMARK                         _______ _______ _______ _____ _____    ______ ____
ROOT
ATOM      1  C   UNL     1     -43.928  -8.182 -27.949  0.00  0.00    +0.000 C 
ATOM      2  C   UNL     1     -44.221  -7.271 -29.121  0.00  0.00    +0.000 C 
ATOM      3  C   UNL     1     -42.958  -6.471 -29.447  0.00  0.00    +0.000 C 
ATOM      4  C   UNL     1     -43.188  -5.347 -30.424  0.00  0.00    +0.000 C 
ATOM      5  C   UNL     1     -44.417  -4.770 -30.574  0.00  0.00    +0.000 C 
ATOM      6  C   UNL     1     -44.679  -3.663 -31.603  0.00  0.00    +0.000 C 
ATOM      7  C   UNL     1     -43.402  -3.130 -32.177  0.00  0.00    +0.000 A 
ATOM      8  C   UNL     1     -42.198  -3.720 -31.982  0.00  0.00    +0.000 A 
ATOM      9  N   UNL     1     -41.226  -3.083 -32.657  0.00  0.00    +0.000 N 
ATOM     10  N   UNL     1     -41.799  -2.073 -33.306  0.00  0.00    +0.000 NA
ATOM     11  C   UNL     1     -43.121  -2.091 -33.028  0.00  0.00    +0.000 A 
ATOM     12  N   UNL     1     -42.040  -4.851 -31.138  0.00  0.00    +0.000 N 
ATOM     13  C   UNL     1     -45.553  -5.241 -29.743  0.00  0.00    +0.000 C 
ATOM     14  O   UNL     1     -46.682  -4.695 -29.841  0.00  0.00    +0.000 OA
ATOM     15  C   UNL     1     -45.364  -6.334 -28.736  0.00  0.00    +0.000 C 
ATOM     16  C   UNL     1     -44.620  -8.134 -30.308  0.00  0.00    +0.000 C 
ATOM     17  H   UNL     1     -40.270  -3.319 -32.669  0.00  0.00    +0.000 HD
ATOM     18  H   UNL     1     -41.163  -5.287 -31.042  0.00  0.00    +0.000 HD
ENDROOT
BRANCH   6  19
ATOM     19  C   UNL     1     -45.585  -4.142 -32.701  0.00  0.00    +0.000 A 
ATOM     20  C   UNL     1     -45.309  -5.319 -33.411  0.00  0.00    +0.000 A 
ATOM     21  C   UNL     1     -46.174  -5.722 -34.430  0.00  0.00    +0.000 A 
ATOM     22  N   UNL     1     -47.271  -4.975 -34.729  0.00  0.00    +0.000 NA
ATOM     23  C   UNL     1     -47.555  -3.827 -34.056  0.00  0.00    +0.000 A 
ATOM     24  C   UNL     1     -46.715  -3.389 -33.030  0.00  0.00    +0.000 A 
ENDBRANCH   6  19
BRANCH  11  25
ATOM     25  O   UNL     1     -44.040  -1.188 -33.547  0.00  0.00    +0.000 OA
ATOM     26  H   UNL     1     -44.473  -0.581 -32.979  0.00  0.00    +0.000 HD
ENDBRANCH  11  25
TORSDOF 2
ENDMDL
MODEL 2
REMARK VINA RESULT:      -5.7     11.853     15.338
REMARK  Name = ZINC000018195880 ZINC18195880
REMARK  2 active torsions:
REMARK  status: ('A' for Active; 'I' for Inactive)
REMARK    1  A    between atoms: C_6  and  C_21
REMARK    2  A    between atoms: C_11  and  O_12
REMARK                            x       y       z     vdW  Elec       q    Type
REMARK                         _______ _______ _______ _____ _____    ______ ____
ROOT
ATOM      1  C   UNL     1     -42.503 -21.489 -23.557  0.00  0.00    +0.000 C 
ATOM      2  C   UNL     1     -43.083 -20.092 -23.606  0.00  0.00    +0.000 C 
ATOM      3  C   UNL     1     -43.232 -19.575 -22.174  0.00  0.00    +0.000 C 
ATOM      4  C   UNL     1     -44.033 -18.302 -22.071  0.00  0.00    +0.000 C 
ATOM      5  C   UNL     1     -44.953 -17.957 -23.020  0.00  0.00    +0.000 C 
ATOM      6  C   UNL     1     -45.735 -16.639 -22.956  0.00  0.00    +0.000 C 
ATOM      7  C   UNL     1     -45.573 -15.964 -21.628  0.00  0.00    +0.000 A 
ATOM      8  C   UNL     1     -44.664 -16.355 -20.704  0.00  0.00    +0.000 A 
ATOM      9  N   UNL     1     -44.677 -15.546 -19.631  0.00  0.00    +0.000 N 
ATOM     10  N   UNL     1     -45.596 -14.612 -19.859  0.00  0.00    +0.000 NA
ATOM     11  C   UNL     1     -46.147 -14.849 -21.069  0.00  0.00    +0.000 A 
ATOM     12  N   UNL     1     -43.845 -17.501 -20.889  0.00  0.00    +0.000 N 
ATOM     13  C   UNL     1     -45.191 -18.861 -24.171  0.00  0.00    +0.000 C 
ATOM     14  O   UNL     1     -46.063 -18.578 -25.034  0.00  0.00    +0.000 OA
ATOM     15  C   UNL     1     -44.442 -20.153 -24.299  0.00  0.00    +0.000 C 
ATOM     16  C   UNL     1     -42.127 -19.205 -24.391  0.00  0.00    +0.000 C 
ATOM     17  H   UNL     1     -44.113 -15.629 -18.828  0.00  0.00    +0.000 HD
ATOM     18  H   UNL     1     -43.164 -17.744 -20.221  0.00  0.00    +0.000 HD
ENDROOT
BRANCH   6  19
ATOM     19  C   UNL     1     -45.332 -15.710 -24.066  0.00  0.00    +0.000 A 
ATOM     20  C   UNL     1     -43.988 -15.382 -24.287  0.00  0.00    +0.000 A 
ATOM     21  C   UNL     1     -43.658 -14.508 -25.325  0.00  0.00    +0.000 A 
ATOM     22  N   UNL     1     -44.637 -13.982 -26.109  0.00  0.00    +0.000 NA
ATOM     23  C   UNL     1     -45.949 -14.283 -25.910  0.00  0.00    +0.000 A 
ATOM     24  C   UNL     1     -46.319 -15.153 -24.882  0.00  0.00    +0.000 A 
ENDBRANCH   6  19
BRANCH  11  25
ATOM     25  O   UNL     1     -47.136 -14.063 -21.645  0.00  0.00    +0.000 OA
ATOM     26  H   UNL     1     -48.010 -14.086 -21.306  0.00  0.00    +0.000 HD
ENDBRANCH  11  25
TORSDOF 2
ENDMDL
MODEL 3
REMARK VINA RESULT:      -5.7      2.418      3.746
REMARK  Name = ZINC000018195880 ZINC18195880
REMARK  2 active torsions:
REMARK  status: ('A' for Active; 'I' for Inactive)
REMARK    1  A    between atoms: C_6  and  C_21
REMARK    2  A    between atoms: C_11  and  O_12
REMARK                            x       y       z     vdW  Elec       q    Type
REMARK                         _______ _______ _______ _____ _____    ______ ____
ROOT
ATOM      1  C   UNL     1     -38.910  -6.963 -33.357  0.00  0.00    +0.000 C 
ATOM      2  C   UNL     1     -40.252  -6.342 -33.035  0.00  0.00    +0.000 C 
ATOM      3  C   UNL     1     -40.222  -4.870 -33.454  0.00  0.00    +0.000 C 
ATOM      4  C   UNL     1     -41.401  -4.075 -32.956  0.00  0.00    +0.000 C 
ATOM      5  C   UNL     1     -42.102  -4.454 -31.847  0.00  0.00    +0.000 C 
ATOM      6  C   UNL     1     -43.338  -3.686 -31.361  0.00  0.00    +0.000 C 
ATOM      7  C   UNL     1     -43.480  -2.368 -32.060  0.00  0.00    +0.000 A 
ATOM      8  C   UNL     1     -42.746  -2.022 -33.144  0.00  0.00    +0.000 A 
ATOM      9  N   UNL     1     -43.112  -0.819 -33.620  0.00  0.00    +0.000 N 
ATOM     10  N   UNL     1     -44.101  -0.380 -32.847  0.00  0.00    +0.000 NA
ATOM     11  C   UNL     1     -44.339  -1.311 -31.897  0.00  0.00    +0.000 A 
ATOM     12  N   UNL     1     -41.712  -2.854 -33.653  0.00  0.00    +0.000 N 
ATOM     13  C   UNL     1     -41.686  -5.664 -31.095  0.00  0.00    +0.000 C 
ATOM     14  O   UNL     1     -42.296  -6.005 -30.049  0.00  0.00    +0.000 OA
ATOM     15  C   UNL     1     -40.499  -6.467 -31.534  0.00  0.00    +0.000 C 
ATOM     16  C   UNL     1     -41.323  -7.090 -33.814  0.00  0.00    +0.000 C 
ATOM     17  H   UNL     1     -42.722  -0.352 -34.394  0.00  0.00    +0.000 HD
ATOM     18  H   UNL     1     -41.218  -2.599 -34.465  0.00  0.00    +0.000 HD
ENDROOT
BRANCH   6  19
ATOM     19  C   UNL     1     -44.588  -4.502 -31.526  0.00  0.00    +0.000 A 
ATOM     20  C   UNL     1     -45.461  -4.721 -30.452  0.00  0.00    +0.000 A 
ATOM     21  C   UNL     1     -46.608  -5.492 -30.648  0.00  0.00    +0.000 A 
ATOM     22  N   UNL     1     -46.868  -6.027 -31.871  0.00  0.00    +0.000 NA
ATOM     23  C   UNL     1     -46.032  -5.832 -32.927  0.00  0.00    +0.000 A 
ATOM     24  C   UNL     1     -44.875  -5.065 -32.772  0.00  0.00    +0.000 A 
ENDBRANCH   6  19
BRANCH  11  25
ATOM     25  O   UNL     1     -45.319  -1.196 -30.920  0.00  0.00    +0.000 OA
ATOM     26  H   UNL     1     -46.137  -0.786 -31.122  0.00  0.00    +0.000 HD
ENDBRANCH  11  25
TORSDOF 2
ENDMDL
