MODEL 1
REMARK VINA RESULT:      -7.1      0.000      0.000
REMARK  Name = ZINC000031810754
REMARK  1 active torsions:
REMARK  status: ('A' for Active; 'I' for Inactive)
REMARK    1  A    between atoms: C_7  and  C_24
REMARK                            x       y       z     vdW  Elec       q    Type
REMARK                         _______ _______ _______ _____ _____    ______ ____
ROOT
ATOM      1  C   UNL     1     -42.949  -5.765 -34.883  0.00  0.00    +0.000 C 
ATOM      2  C   UNL     1     -43.754  -6.160 -33.694  0.00  0.00    +0.000 A 
ATOM      3  N   UNL     1     -43.592  -7.327 -33.045  0.00  0.00    +0.000 NA
ATOM      4  N   UNL     1     -44.456  -7.350 -32.042  0.00  0.00    +0.000 N 
ATOM      5  C   UNL     1     -45.156  -6.193 -32.016  0.00  0.00    +0.000 A 
ATOM      6  C   UNL     1     -44.742  -5.403 -33.087  0.00  0.00    +0.000 A 
ATOM      7  C   UNL     1     -45.136  -4.018 -33.519  0.00  0.00    +0.000 C 
ATOM      8  S   UNL     1     -46.868  -3.575 -33.180  0.00  0.00    +0.000 S 
ATOM      9  C   UNL     1     -46.570  -3.413 -31.403  0.00  0.00    +0.000 C 
ATOM     10  C   UNL     1     -46.855  -4.698 -30.722  0.00  0.00    +0.000 C 
ATOM     11  O   UNL     1     -47.756  -4.723 -29.845  0.00  0.00    +0.000 OA
ATOM     12  N   UNL     1     -46.124  -5.898 -30.993  0.00  0.00    +0.000 N 
ATOM     13  H   UNL     1     -46.313  -6.644 -30.379  0.00  0.00    +0.000 HD
ATOM     14  C   UNL     1     -44.536  -8.443 -31.117  0.00  0.00    +0.000 A 
ATOM     15  N   UNL     1     -43.396  -9.080 -30.710  0.00  0.00    +0.000 NA
ATOM     16  C   UNL     1     -43.440 -10.146 -29.849  0.00  0.00    +0.000 A 
ATOM     17  N   UNL     1     -44.637 -10.614 -29.384  0.00  0.00    +0.000 NA
ATOM     18  C   UNL     1     -45.768  -9.993 -29.798  0.00  0.00    +0.000 A 
ATOM     19  N   UNL     1     -47.024 -10.342 -29.498  0.00  0.00    +0.000 N 
ATOM     20  C   UNL     1     -47.756  -9.445 -30.213  0.00  0.00    +0.000 A 
ATOM     21  N   UNL     1     -47.004  -8.573 -30.937  0.00  0.00    +0.000 NA
ATOM     22  C   UNL     1     -45.749  -8.942 -30.642  0.00  0.00    +0.000 A 
ATOM     23  H   UNL     1     -47.340 -11.065 -28.908  0.00  0.00    +0.000 HD
ENDROOT
BRANCH   7  24
ATOM     24  C   UNL     1     -44.151  -2.942 -33.155  0.00  0.00    +0.000 A 
ATOM     25  C   UNL     1     -44.413  -1.622 -33.539  0.00  0.00    +0.000 A 
ATOM     26  C   UNL     1     -43.520  -0.599 -33.205  0.00  0.00    +0.000 A 
ATOM     27  C   UNL     1     -42.361  -0.891 -32.482  0.00  0.00    +0.000 A 
ATOM     28  F   UNL     1     -41.497   0.100 -32.160  0.00  0.00    +0.000 F 
ATOM     29  C   UNL     1     -42.093  -2.206 -32.091  0.00  0.00    +0.000 A 
ATOM     30  C   UNL     1     -42.985  -3.229 -32.426  0.00  0.00    +0.000 A 
ENDBRANCH   7  24
TORSDOF 1
ENDMDL
MODEL 2
REMARK VINA RESULT:      -6.9      2.768      3.379
REMARK  Name = ZINC000031810754
REMARK  1 active torsions:
REMARK  status: ('A' for Active; 'I' for Inactive)
REMARK    1  A    between atoms: C_7  and  C_24
REMARK                            x       y       z     vdW  Elec       q    Type
REMARK                         _______ _______ _______ _____ _____    ______ ____
ROOT
ATOM      1  C   UNL     1     -47.470  -4.302 -34.373  0.00  0.00    +0.000 C 
ATOM      2  C   UNL     1     -46.704  -5.481 -33.882  0.00  0.00    +0.000 A 
ATOM      3  N   UNL     1     -46.638  -6.650 -34.545  0.00  0.00    +0.000 NA
ATOM      4  N   UNL     1     -45.875  -7.468 -33.838  0.00  0.00    +0.000 N 
ATOM      5  C   UNL     1     -45.418  -6.830 -32.736  0.00  0.00    +0.000 A 
ATOM      6  C   UNL     1     -45.952  -5.542 -32.720  0.00  0.00    +0.000 A 
ATOM      7  C   UNL     1     -45.757  -4.391 -31.774  0.00  0.00    +0.000 C 
ATOM      8  S   UNL     1     -45.480  -4.865 -30.039  0.00  0.00    +0.000 S 
ATOM      9  C   UNL     1     -43.802  -5.447 -30.375  0.00  0.00    +0.000 C 
ATOM     10  C   UNL     1     -43.819  -6.898 -30.679  0.00  0.00    +0.000 C 
ATOM     11  O   UNL     1     -43.172  -7.674 -29.930  0.00  0.00    +0.000 OA
ATOM     12  N   UNL     1     -44.507  -7.445 -31.808  0.00  0.00    +0.000 N 
ATOM     13  H   UNL     1     -44.327  -8.398 -31.979  0.00  0.00    +0.000 HD
ATOM     14  C   UNL     1     -45.565  -8.800 -34.270  0.00  0.00    +0.000 A 
ATOM     15  N   UNL     1     -45.347  -9.057 -35.595  0.00  0.00    +0.000 NA
ATOM     16  C   UNL     1     -45.075 -10.323 -36.045  0.00  0.00    +0.000 A 
ATOM     17  N   UNL     1     -45.031 -11.375 -35.173  0.00  0.00    +0.000 NA
ATOM     18  C   UNL     1     -45.261 -11.125 -33.862  0.00  0.00    +0.000 A 
ATOM     19  N   UNL     1     -45.317 -12.028 -32.876  0.00  0.00    +0.000 N 
ATOM     20  C   UNL     1     -45.636 -11.264 -31.796  0.00  0.00    +0.000 A 
ATOM     21  N   UNL     1     -45.783  -9.941 -32.081  0.00  0.00    +0.000 NA
ATOM     22  C   UNL     1     -45.527  -9.888 -33.396  0.00  0.00    +0.000 A 
ATOM     23  H   UNL     1     -45.164 -12.999 -32.920  0.00  0.00    +0.000 HD
ENDROOT
BRANCH   7  24
ATOM     24  C   UNL     1     -44.822  -3.323 -32.269  0.00  0.00    +0.000 A 
ATOM     25  C   UNL     1     -44.907  -2.037 -31.720  0.00  0.00    +0.000 A 
ATOM     26  C   UNL     1     -44.043  -1.027 -32.153  0.00  0.00    +0.000 A 
ATOM     27  C   UNL     1     -43.087  -1.298 -33.136  0.00  0.00    +0.000 A 
ATOM     28  F   UNL     1     -42.251  -0.318 -33.554  0.00  0.00    +0.000 F 
ATOM     29  C   UNL     1     -42.993  -2.579 -33.685  0.00  0.00    +0.000 A 
ATOM     30  C   UNL     1     -43.857  -3.589 -33.253  0.00  0.00    +0.000 A 
ENDBRANCH   7  24
TORSDOF 1
ENDMDL
MODEL 3
REMARK VINA RESULT:      -6.7      3.865      7.156
REMARK  Name = ZINC000031810754
REMARK  1 active torsions:
REMARK  status: ('A' for Active; 'I' for Inactive)
REMARK    1  A    between atoms: C_7  and  C_24
REMARK                            x       y       z     vdW  Elec       q    Type
REMARK                         _______ _______ _______ _____ _____    ______ ____
ROOT
ATOM      1  C   UNL     1     -42.483  -6.877 -27.514  0.00  0.00    +0.000 C 
ATOM      2  C   UNL     1     -42.976  -6.201 -28.745  0.00  0.00    +0.000 A 
ATOM      3  N   UNL     1     -42.170  -5.805 -29.747  0.00  0.00    +0.000 NA
ATOM      4  N   UNL     1     -42.930  -5.253 -30.678  0.00  0.00    +0.000 N 
ATOM      5  C   UNL     1     -44.229  -5.315 -30.305  0.00  0.00    +0.000 A 
ATOM      6  C   UNL     1     -44.296  -5.906 -29.045  0.00  0.00    +0.000 A 
ATOM      7  C   UNL     1     -45.465  -6.267 -28.171  0.00  0.00    +0.000 C 
ATOM      8  S   UNL     1     -46.892  -5.145 -28.301  0.00  0.00    +0.000 S 
ATOM      9  C   UNL     1     -47.351  -5.777 -29.933  0.00  0.00    +0.000 C 
ATOM     10  C   UNL     1     -46.717  -4.955 -30.991  0.00  0.00    +0.000 C 
ATOM     11  O   UNL     1     -47.462  -4.350 -31.805  0.00  0.00    +0.000 OA
ATOM     12  N   UNL     1     -45.299  -4.854 -31.149  0.00  0.00    +0.000 N 
ATOM     13  H   UNL     1     -45.007  -4.394 -31.969  0.00  0.00    +0.000 HD
ATOM     14  C   UNL     1     -42.396  -4.745 -31.909  0.00  0.00    +0.000 A 
ATOM     15  N   UNL     1     -41.370  -5.400 -32.532  0.00  0.00    +0.000 NA
ATOM     16  C   UNL     1     -40.818  -4.927 -33.695  0.00  0.00    +0.000 A 
ATOM     17  N   UNL     1     -41.274  -3.767 -34.257  0.00  0.00    +0.000 NA
ATOM     18  C   UNL     1     -42.280  -3.109 -33.633  0.00  0.00    +0.000 A 
ATOM     19  N   UNL     1     -42.814  -1.938 -33.999  0.00  0.00    +0.000 N 
ATOM     20  C   UNL     1     -43.720  -1.707 -33.010  0.00  0.00    +0.000 A 
ATOM     21  N   UNL     1     -43.757  -2.679 -32.058  0.00  0.00    +0.000 NA
ATOM     22  C   UNL     1     -42.840  -3.556 -32.491  0.00  0.00    +0.000 A 
ATOM     23  H   UNL     1     -42.605  -1.383 -34.785  0.00  0.00    +0.000 HD
ENDROOT
BRANCH   7  24
ATOM     24  C   UNL     1     -45.834  -7.725 -28.186  0.00  0.00    +0.000 A 
ATOM     25  C   UNL     1     -46.624  -8.237 -27.150  0.00  0.00    +0.000 A 
ATOM     26  C   UNL     1     -46.992  -9.586 -27.143  0.00  0.00    +0.000 A 
ATOM     27  C   UNL     1     -46.573 -10.429 -28.176  0.00  0.00    +0.000 A 
ATOM     28  F   UNL     1     -46.930 -11.736 -28.168  0.00  0.00    +0.000 F 
ATOM     29  C   UNL     1     -45.789  -9.925 -29.216  0.00  0.00    +0.000 A 
ATOM     30  C   UNL     1     -45.420  -8.577 -29.223  0.00  0.00    +0.000 A 
ENDBRANCH   7  24
TORSDOF 1
ENDMDL
