MODEL 1
REMARK VINA RESULT:      -6.1      0.000      0.000
REMARK  Name = ZINC000012801021 ZINC12801021 MolPort-005-751-258 PubChem-25522332
REMARK  5 active torsions:
REMARK  status: ('A' for Active; 'I' for Inactive)
REMARK    1  A    between atoms: N_1  and  C_9
REMARK    2  A    between atoms: C_2  and  C_16
REMARK    3  A    between atoms: C_5  and  O_13
REMARK    4  A    between atoms: C_11  and  O_14
REMARK    5  A    between atoms: C_17  and  C_18
REMARK                            x       y       z     vdW  Elec       q    Type
REMARK                         _______ _______ _______ _____ _____    ______ ____
ROOT
ATOM      1  N   UNL     1     -45.354 -19.128 -24.357  0.00  0.00    +0.000 N 
ATOM      2  C   UNL     1     -44.996 -18.210 -25.400  0.00  0.00    +0.000 C 
ATOM      3  O   UNL     1     -44.797 -18.657 -26.560  0.00  0.00    +0.000 OA
ATOM      4  H   UNL     1     -45.948 -19.873 -24.603  0.00  0.00    +0.000 HD
ENDROOT
BRANCH   1   9
ATOM      5  C   UNL     1     -44.053 -18.870 -20.316  0.00  0.00    +0.000 A 
ATOM      6  C   UNL     1     -43.245 -19.477 -21.290  0.00  0.00    +0.000 A 
ATOM      7  C   UNL     1     -43.673 -19.569 -22.617  0.00  0.00    +0.000 A 
ATOM      8  C   UNL     1     -42.779 -20.220 -23.616  0.00  0.00    +0.000 C 
ATOM      9  C   UNL     1     -44.928 -19.061 -22.987  0.00  0.00    +0.000 A 
ATOM     10  C   UNL     1     -45.725 -18.437 -22.017  0.00  0.00    +0.000 A 
ATOM     11  C   UNL     1     -45.302 -18.345 -20.682  0.00  0.00    +0.000 A 
BRANCH   5  13
ATOM     12  C   UNL     1     -42.514 -18.003 -18.582  0.00  0.00    +0.000 C 
ATOM     13  O   UNL     1     -43.637 -18.776 -18.984  0.00  0.00    +0.000 OA
ENDBRANCH   5  13
BRANCH  11  14
ATOM     14  O   UNL     1     -46.103 -17.740 -19.708  0.00  0.00    +0.000 OA
ATOM     15  C   UNL     1     -46.070 -16.344 -19.445  0.00  0.00    +0.000 C 
ENDBRANCH  11  14
ENDBRANCH   1   9
BRANCH   2  16
ATOM     16  C   UNL     1     -44.909 -16.756 -25.187  0.00  0.00    +0.000 C 
ATOM     17  C   UNL     1     -45.980 -15.986 -25.028  0.00  0.00    +0.000 C 
BRANCH  17  18
ATOM     18  C   UNL     1     -45.906 -14.535 -24.798  0.00  0.00    +0.000 A 
ATOM     19  C   UNL     1     -46.044 -13.499 -25.711  0.00  0.00    +0.000 A 
ATOM     20  C   UNL     1     -46.313 -13.662 -27.173  0.00  0.00    +0.000 C 
ATOM     21  N   UNL     1     -45.890 -12.311 -25.081  0.00  0.00    +0.000 N 
ATOM     22  C   UNL     1     -45.657 -12.611 -23.780  0.00  0.00    +0.000 A 
ATOM     23  C   UNL     1     -45.428 -11.614 -22.693  0.00  0.00    +0.000 C 
ATOM     24  C   UNL     1     -45.659 -13.976 -23.561  0.00  0.00    +0.000 A 
ATOM     25  C   UNL     1     -45.957 -10.990 -25.662  0.00  0.00    +0.000 A 
ATOM     26  N   UNL     1     -47.112 -10.345 -25.919  0.00  0.00    +0.000 NA
ATOM     27  O   UNL     1     -46.789  -9.199 -26.437  0.00  0.00    +0.000 OA
ATOM     28  C   UNL     1     -45.488  -9.080 -26.524  0.00  0.00    +0.000 A 
ATOM     29  C   UNL     1     -44.791  -7.888 -27.073  0.00  0.00    +0.000 C 
ATOM     30  C   UNL     1     -44.870 -10.215 -26.037  0.00  0.00    +0.000 A 
ENDBRANCH  17  18
ENDBRANCH   2  16
TORSDOF 5
ENDMDL
MODEL 2
REMARK VINA RESULT:      -6.0      3.061      7.336
REMARK  Name = ZINC000012801021 ZINC12801021 MolPort-005-751-258 PubChem-25522332
REMARK  5 active torsions:
REMARK  status: ('A' for Active; 'I' for Inactive)
REMARK    1  A    between atoms: N_1  and  C_9
REMARK    2  A    between atoms: C_2  and  C_16
REMARK    3  A    between atoms: C_5  and  O_13
REMARK    4  A    between atoms: C_11  and  O_14
REMARK    5  A    between atoms: C_17  and  C_18
REMARK                            x       y       z     vdW  Elec       q    Type
REMARK                         _______ _______ _______ _____ _____    ______ ____
ROOT
ATOM      1  N   UNL     1     -43.624 -17.204 -26.940  0.00  0.00    +0.000 N 
ATOM      2  C   UNL     1     -44.515 -18.118 -26.284  0.00  0.00    +0.000 C 
ATOM      3  O   UNL     1     -44.777 -19.215 -26.842  0.00  0.00    +0.000 OA
ATOM      4  H   UNL     1     -42.863 -17.595 -27.427  0.00  0.00    +0.000 HD
ENDROOT
BRANCH   1   9
ATOM      5  C   UNL     1     -43.902 -12.962 -27.027  0.00  0.00    +0.000 A 
ATOM      6  C   UNL     1     -42.953 -13.599 -26.214  0.00  0.00    +0.000 A 
ATOM      7  C   UNL     1     -42.864 -14.994 -26.178  0.00  0.00    +0.000 A 
ATOM      8  C   UNL     1     -41.838 -15.625 -25.301  0.00  0.00    +0.000 C 
ATOM      9  C   UNL     1     -43.737 -15.773 -26.953  0.00  0.00    +0.000 A 
ATOM     10  C   UNL     1     -44.672 -15.133 -27.781  0.00  0.00    +0.000 A 
ATOM     11  C   UNL     1     -44.768 -13.734 -27.817  0.00  0.00    +0.000 A 
BRANCH   5  13
ATOM     12  C   UNL     1     -44.681 -10.817 -26.069  0.00  0.00    +0.000 C 
ATOM     13  O   UNL     1     -44.004 -11.567 -27.068  0.00  0.00    +0.000 OA
ENDBRANCH   5  13
BRANCH  11  14
ATOM     14  O   UNL     1     -45.711 -13.094 -28.626  0.00  0.00    +0.000 OA
ATOM     15  C   UNL     1     -47.063 -12.904 -28.228  0.00  0.00    +0.000 C 
ENDBRANCH  11  14
ENDBRANCH   1   9
BRANCH   2  16
ATOM     16  C   UNL     1     -45.089 -17.855 -24.955  0.00  0.00    +0.000 C 
ATOM     17  C   UNL     1     -44.373 -17.912 -23.837  0.00  0.00    +0.000 C 
BRANCH  17  18
ATOM     18  C   UNL     1     -44.932 -17.634 -22.504  0.00  0.00    +0.000 A 
ATOM     19  C   UNL     1     -44.971 -16.435 -21.807  0.00  0.00    +0.000 A 
ATOM     20  C   UNL     1     -44.434 -15.129 -22.299  0.00  0.00    +0.000 C 
ATOM     21  N   UNL     1     -45.565 -16.624 -20.606  0.00  0.00    +0.000 N 
ATOM     22  C   UNL     1     -45.892 -17.938 -20.558  0.00  0.00    +0.000 A 
ATOM     23  C   UNL     1     -46.575 -18.615 -19.417  0.00  0.00    +0.000 C 
ATOM     24  C   UNL     1     -45.519 -18.601 -21.713  0.00  0.00    +0.000 A 
ATOM     25  C   UNL     1     -45.805 -15.638 -19.577  0.00  0.00    +0.000 A 
ATOM     26  N   UNL     1     -46.840 -14.775 -19.597  0.00  0.00    +0.000 NA
ATOM     27  O   UNL     1     -46.734 -14.046 -18.528  0.00  0.00    +0.000 OA
ATOM     28  C   UNL     1     -45.686 -14.399 -17.827  0.00  0.00    +0.000 A 
ATOM     29  C   UNL     1     -45.281 -13.761 -16.548  0.00  0.00    +0.000 C 
ATOM     30  C   UNL     1     -45.022 -15.437 -18.450  0.00  0.00    +0.000 A 
ENDBRANCH  17  18
ENDBRANCH   2  16
TORSDOF 5
ENDMDL
MODEL 3
REMARK VINA RESULT:      -6.0      3.852      7.888
REMARK  Name = ZINC000012801021 ZINC12801021 MolPort-005-751-258 PubChem-25522332
REMARK  5 active torsions:
REMARK  status: ('A' for Active; 'I' for Inactive)
REMARK    1  A    between atoms: N_1  and  C_9
REMARK    2  A    between atoms: C_2  and  C_16
REMARK    3  A    between atoms: C_5  and  O_13
REMARK    4  A    between atoms: C_11  and  O_14
REMARK    5  A    between atoms: C_17  and  C_18
REMARK                            x       y       z     vdW  Elec       q    Type
REMARK                         _______ _______ _______ _____ _____    ______ ____
ROOT
ATOM      1  N   UNL     1     -46.620 -13.254 -17.696  0.00  0.00    +0.000 N 
ATOM      2  C   UNL     1     -47.000 -14.539 -18.211  0.00  0.00    +0.000 C 
ATOM      3  O   UNL     1     -47.438 -15.407 -17.412  0.00  0.00    +0.000 OA
ATOM      4  H   UNL     1     -47.172 -12.884 -16.970  0.00  0.00    +0.000 HD
ENDROOT
BRANCH   1   9
ATOM      5  C   UNL     1     -43.355 -10.842 -18.961  0.00  0.00    +0.000 A 
ATOM      6  C   UNL     1     -44.656 -10.578 -19.415  0.00  0.00    +0.000 A 
ATOM      7  C   UNL     1     -45.730 -11.374 -19.006  0.00  0.00    +0.000 A 
ATOM      8  C   UNL     1     -47.094 -11.054 -19.513  0.00  0.00    +0.000 C 
ATOM      9  C   UNL     1     -45.512 -12.457 -18.141  0.00  0.00    +0.000 A 
ATOM     10  C   UNL     1     -44.214 -12.706 -17.672  0.00  0.00    +0.000 A 
ATOM     11  C   UNL     1     -43.132 -11.913 -18.083  0.00  0.00    +0.000 A 
BRANCH   5  13
ATOM     12  C   UNL     1     -42.169  -8.671 -19.061  0.00  0.00    +0.000 C 
ATOM     13  O   UNL     1     -42.272 -10.055 -19.367  0.00  0.00    +0.000 OA
ENDBRANCH   5  13
BRANCH  11  14
ATOM     14  O   UNL     1     -41.833 -12.171 -17.632  0.00  0.00    +0.000 OA
ATOM     15  C   UNL     1     -41.333 -11.669 -16.400  0.00  0.00    +0.000 C 
ENDBRANCH  11  14
ENDBRANCH   1   9
BRANCH   2  16
ATOM     16  C   UNL     1     -46.955 -14.868 -19.645  0.00  0.00    +0.000 C 
ATOM     17  C   UNL     1     -45.914 -15.468 -20.214  0.00  0.00    +0.000 C 
BRANCH  17  18
ATOM     18  C   UNL     1     -45.864 -15.816 -21.642  0.00  0.00    +0.000 A 
ATOM     19  C   UNL     1     -45.532 -17.027 -22.234  0.00  0.00    +0.000 A 
ATOM     20  C   UNL     1     -45.149 -18.273 -21.501  0.00  0.00    +0.000 C 
ATOM     21  N   UNL     1     -45.599 -16.911 -23.581  0.00  0.00    +0.000 N 
ATOM     22  C   UNL     1     -45.972 -15.631 -23.823  0.00  0.00    +0.000 A 
ATOM     23  C   UNL     1     -46.180 -15.035 -25.175  0.00  0.00    +0.000 C 
ATOM     24  C   UNL     1     -46.146 -14.918 -22.651  0.00  0.00    +0.000 A 
ATOM     25  C   UNL     1     -45.331 -17.932 -24.567  0.00  0.00    +0.000 A 
ATOM     26  N   UNL     1     -46.220 -18.880 -24.921  0.00  0.00    +0.000 NA
ATOM     27  O   UNL     1     -45.639 -19.616 -25.819  0.00  0.00    +0.000 OA
ATOM     28  C   UNL     1     -44.425 -19.187 -26.055  0.00  0.00    +0.000 A 
ATOM     29  C   UNL     1     -43.491 -19.810 -27.030  0.00  0.00    +0.000 C 
ATOM     30  C   UNL     1     -44.146 -18.085 -25.272  0.00  0.00    +0.000 A 
ENDBRANCH  17  18
ENDBRANCH   2  16
TORSDOF 5
ENDMDL
