REMARK  Name = ZINC000072242290 ZINC72242290 PubChem-95740501
REMARK  4 active torsions:
REMARK  status: ('A' for Active; 'I' for Inactive)
REMARK    1  A    between atoms: C_5  and  C_6
REMARK    2  A    between atoms: C_6  and  N_22
REMARK    3  A    between atoms: C_7  and  C_8
REMARK    4  A    between atoms: C_11  and  C_12
REMARK                            x       y       z     vdW  Elec       q    Type
REMARK                         _______ _______ _______ _____ _____    ______ ____
ROOT
ATOM      1  C   UNL     1     -51.684   0.037 -19.921  0.00  0.00    +0.000 C 
ATOM      2  C   UNL     1     -51.965  -0.977 -18.804  0.00  0.00    +0.000 C 
ATOM      3  C   UNL     1     -50.615  -1.421 -18.405  0.00  0.00    +0.000 C 
ATOM      4  C   UNL     1     -50.156   0.183 -20.048  0.00  0.00    +0.000 C 
ATOM      5  C   UNL     1     -48.172  -0.862 -18.797  0.00  0.00    +0.000 C 
ATOM      6  O   UNL     1     -50.397  -2.275 -17.507  0.00  0.00    +0.000 OA
ATOM      7  N   UNL     1     -49.585  -0.787 -19.133  0.00  0.00    +0.000 N 
ENDROOT
BRANCH   4   8
ATOM      8  C   UNL     1     -49.709  -0.071 -21.456  0.00  0.00    +0.000 A 
ATOM      9  C   UNL     1     -49.114   0.968 -22.179  0.00  0.00    +0.000 A 
ATOM     10  C   UNL     1     -48.687   0.755 -23.494  0.00  0.00    +0.000 A 
ATOM     11  C   UNL     1     -48.854  -0.499 -24.089  0.00  0.00    +0.000 A 
ATOM     12  C   UNL     1     -49.449  -1.540 -23.371  0.00  0.00    +0.000 A 
ATOM     13  C   UNL     1     -49.877  -1.328 -22.057  0.00  0.00    +0.000 A 
ATOM     14  F   UNL     1     -48.434  -0.705 -25.359  0.00  0.00    +0.000 F 
ENDBRANCH   4   8
BRANCH   1  15
ATOM     15  C   UNL     1     -52.309   1.357 -19.613  0.00  0.00    +0.000 C 
ATOM     16  O   UNL     1     -53.102   1.873 -20.446  0.00  0.00    +0.000 OA
ATOM     17  N   UNL     1     -52.001   2.032 -18.391  0.00  0.00    +0.000 NA
BRANCH  17  18
ATOM     18  C   UNL     1     -52.578   3.324 -18.058  0.00  0.00    +0.000 C 
BRANCH  18  23
ATOM     19  C   UNL     1     -49.813   4.951 -14.340  0.00  0.00    +0.000 C 
ATOM     20  C   UNL     1     -50.981   4.402 -15.079  0.00  0.00    +0.000 A 
ATOM     21  C   UNL     1     -52.185   4.041 -14.505  0.00  0.00    +0.000 A 
ATOM     22  C   UNL     1     -52.965   3.583 -15.556  0.00  0.00    +0.000 A 
ATOM     23  C   UNL     1     -52.172   3.710 -16.680  0.00  0.00    +0.000 A 
ATOM     24  O   UNL     1     -50.996   4.195 -16.371  0.00  0.00    +0.000 OA
ENDBRANCH  18  23
ENDBRANCH  17  18
ENDBRANCH   1  15
TORSDOF 4
