REMARK  Name = ZINC000005207199 MCULE-6774306245 MolPort-002-650-264
REMARK  9 active torsions:
REMARK  status: ('A' for Active; 'I' for Inactive)
REMARK    1  A    between atoms: C_2  and  C_3
REMARK    2  A    between atoms: C_2  and  N_22
REMARK    3  A    between atoms: C_3  and  C_4
REMARK    4  A    between atoms: C_4  and  O_28
REMARK    5  A    between atoms: C_6  and  C_15
REMARK    6  A    between atoms: C_16  and  C_17
REMARK    7  A    between atoms: C_16  and  N_25
REMARK    8  A    between atoms: C_17  and  C_18
REMARK    9  A    between atoms: C_18  and  N_26
REMARK                            x       y       z     vdW  Elec       q    Type
REMARK                         _______ _______ _______ _____ _____    ______ ____
ROOT
ATOM      1  C   UNL     1     -49.786   0.317 -22.015  0.00  0.00    +0.000 A 
ATOM      2  C   UNL     1     -51.457   1.270 -21.060  0.00  0.00    +0.000 A 
ATOM      3  C   UNL     1     -51.681   1.402 -22.437  0.00  0.00    +0.000 A 
ATOM      4  C   UNL     1     -50.588   0.777 -23.009  0.00  0.00    +0.000 A 
ATOM      5  C   UNL     1     -50.236   0.571 -24.337  0.00  0.00    +0.000 A 
ATOM      6  C   UNL     1     -48.692  -0.323 -25.900  0.00  0.00    +0.000 A 
ATOM      7  C   UNL     1     -47.512  -1.007 -26.198  0.00  0.00    +0.000 A 
ATOM      8  C   UNL     1     -46.707  -1.469 -25.158  0.00  0.00    +0.000 A 
ATOM      9  C   UNL     1     -47.085  -1.247 -23.835  0.00  0.00    +0.000 A 
ATOM     10  C   UNL     1     -48.271  -0.562 -23.564  0.00  0.00    +0.000 A 
ATOM     11  N   UNL     1     -50.293   0.611 -20.811  0.00  0.00    +0.000 N 
ATOM     12  N   UNL     1     -49.068  -0.103 -24.605  0.00  0.00    +0.000 N 
ATOM     13  N   UNL     1     -48.635  -0.349 -22.265  0.00  0.00    +0.000 NA
ATOM     14  O   UNL     1     -50.977   0.996 -25.267  0.00  0.00    +0.000 OA
ENDROOT
BRANCH   2  15
ATOM     15  C   UNL     1     -52.381   1.789 -20.032  0.00  0.00    +0.000 C 
ATOM     16  N   UNL     1     -52.118   1.576 -18.645  0.00  0.00    +0.000 NA
ATOM     17  O   UNL     1     -53.412   2.424 -20.385  0.00  0.00    +0.000 OA
BRANCH  16  18
ATOM     18  C   UNL     1     -52.989   2.091 -17.600  0.00  0.00    +0.000 C 
BRANCH  18  19
ATOM     19  C   UNL     1     -52.457   1.686 -16.234  0.00  0.00    +0.000 C 
BRANCH  19  20
ATOM     20  C   UNL     1     -51.131   2.374 -15.930  0.00  0.00    +0.000 C 
BRANCH  20  24
ATOM     21  C   UNL     1     -50.796   4.765 -16.539  0.00  0.00    +0.000 A 
ATOM     22  C   UNL     1     -51.200   5.977 -16.014  0.00  0.00    +0.000 A 
ATOM     23  C   UNL     1     -52.010   4.415 -14.784  0.00  0.00    +0.000 A 
ATOM     24  N   UNL     1     -51.317   3.807 -15.759  0.00  0.00    +0.000 N 
ATOM     25  N   UNL     1     -51.958   5.754 -14.918  0.00  0.00    +0.000 NA
ENDBRANCH  20  24
ENDBRANCH  19  20
ENDBRANCH  18  19
ENDBRANCH  16  18
ENDBRANCH   2  15
BRANCH  11  26
ATOM     26  C   UNL     1     -49.715   0.244 -19.524  0.00  0.00    +0.000 C 
BRANCH  26  27
ATOM     27  C   UNL     1     -50.239  -1.111 -19.088  0.00  0.00    +0.000 C 
BRANCH  27  28
ATOM     28  C   UNL     1     -49.681  -1.447 -17.721  0.00  0.00    +0.000 C 
BRANCH  28  30
ATOM     29  C   UNL     1     -49.523  -2.936 -16.102  0.00  0.00    +0.000 C 
ATOM     30  O   UNL     1     -50.170  -2.687 -17.312  0.00  0.00    +0.000 OA
ENDBRANCH  28  30
ENDBRANCH  27  28
ENDBRANCH  26  27
ENDBRANCH  11  26
TORSDOF 9
