REMARK  Name = ZINC000012896535 ZINC12896535 CSCC[C@@H](CO)NC(=O)Cc1c(C)c2cc3c(C)coc3cc2oc1=O MCULE-4833014261 MolPort-002-536-305 PubChem-16408420
REMARK  7 active torsions:
REMARK  status: ('A' for Active; 'I' for Inactive)
REMARK    1  A    between atoms: CG_2  and  CB_3
REMARK    2  A    between atoms: CG_2  and  SD_21
REMARK    3  A    between atoms: CB_3  and  CA_4
REMARK    4  A    between atoms: CA_4  and  C_5
REMARK    5  A    between atoms: CA_4  and  N_27
REMARK    6  A    between atoms: C_6  and  C_7
REMARK    7  A    between atoms: C_7  and  C_8
REMARK                            x       y       z     vdW  Elec       q    Type
REMARK                         _______ _______ _______ _____ _____    ______ ____
ROOT
ATOM      1  C   UNK A   0     -49.594  -0.423 -19.022  0.00  0.00    +0.000 A 
ATOM      2  C   UNK A   0     -49.274   0.246 -20.217  0.00  0.00    +0.000 A 
ATOM      3  C   UNK A   0     -49.144   1.740 -20.239  0.00  0.00    +0.000 C 
ATOM      4  C   UNK A   0     -49.071  -0.505 -21.386  0.00  0.00    +0.000 A 
ATOM      5  C   UNK A   0     -48.747   0.111 -22.615  0.00  0.00    +0.000 A 
ATOM      6  C   UNK A   0     -48.565  -0.714 -23.721  0.00  0.00    +0.000 A 
ATOM      7  C   UNK A   0     -48.688  -2.071 -23.649  0.00  0.00    +0.000 A 
ATOM      8  C   UNK A   0     -48.199  -1.653 -25.689  0.00  0.00    +0.000 A 
ATOM      9  C   UNK A   0     -48.250  -0.430 -25.027  0.00  0.00    +0.000 A 
ATOM     10  C   UNK A   0     -48.011   0.911 -25.626  0.00  0.00    +0.000 C 
ATOM     11  C   UNK A   0     -49.006  -2.718 -22.458  0.00  0.00    +0.000 A 
ATOM     12  C   UNK A   0     -49.200  -1.924 -21.312  0.00  0.00    +0.000 A 
ATOM     13  C   UNK A   0     -49.703  -1.826 -19.037  0.00  0.00    +0.000 A 
ATOM     14  O   UNK A   0     -48.469  -2.616 -24.822  0.00  0.00    +0.000 OA
ATOM     15  O   UNK A   0     -49.505  -2.508 -20.160  0.00  0.00    +0.000 OA
ATOM     16  O   UNK A   0     -49.990  -2.453 -17.983  0.00  0.00    +0.000 OA
ENDROOT
BRANCH   1  17
ATOM     17  C   UNK A   0     -49.846   0.340 -17.753  0.00  0.00    +0.000 C 
BRANCH  17  18
ATOM     18  C   UNK A   0     -51.300   0.632 -17.598  0.00  0.00    +0.000 C 
ATOM     19  O   UNK A   0     -52.013  -0.113 -16.874  0.00  0.00    +0.000 OA
ATOM     20  N   MET A   1     -51.879   1.734 -18.302  0.00  0.00    +0.000 NA
BRANCH  20  21
ATOM     21  CA  MET A   1     -53.290   2.088 -18.200  0.00  0.00    +0.000 C 
BRANCH  21  22
ATOM     22  C   MET A   1     -53.653   3.111 -19.265  0.00  0.00    +0.000 C 
ATOM     23  O   MET A   1     -53.537   2.539 -20.532  0.00  0.00    +0.000 OA
ENDBRANCH  21  22
BRANCH  21  24
ATOM     24  CB  MET A   1     -53.627   2.612 -16.804  0.00  0.00    +0.000 C 
BRANCH  24  25
ATOM     25  CG  MET A   1     -52.788   3.824 -16.427  0.00  0.00    +0.000 C 
BRANCH  25  27
ATOM     26  CE  MET A   1     -52.024   5.719 -14.804  0.00  0.00    +0.000 C 
ATOM     27  SD  MET A   1     -53.228   4.364 -14.753  0.00  0.00    +0.000 S 
ENDBRANCH  25  27
ENDBRANCH  24  25
ENDBRANCH  21  24
ENDBRANCH  20  21
ENDBRANCH  17  18
ENDBRANCH   1  17
TORSDOF 7
