REMARK  Name = ZINC000253471122
REMARK  7 active torsions:
REMARK  status: ('A' for Active; 'I' for Inactive)
REMARK    1  A    between atoms: C_7  and  C_8
REMARK    2  A    between atoms: C_8  and  C_9
REMARK    3  A    between atoms: C_9  and  C_10
REMARK    4  A    between atoms: C_9  and  C_17
REMARK    5  A    between atoms: C_26  and  C_27
REMARK    6  A    between atoms: C_26  and  N_34
REMARK    7  A    between atoms: C_27  and  C_28
REMARK                            x       y       z     vdW  Elec       q    Type
REMARK                         _______ _______ _______ _____ _____    ______ ____
ROOT
ATOM      1  C   UNL     1     -50.494   0.621 -20.872  0.00  0.00    +0.000 C 
ENDROOT
BRANCH   1   5
ATOM      2  O   UNL     1     -48.137   2.132 -21.536  0.00  0.00    +0.000 OA
ATOM      3  O   UNL     1     -47.743   1.020 -23.429  0.00  0.00    +0.000 OA
ATOM      4  O   UNL     1     -51.093  -1.350 -22.820  0.00  0.00    +0.000 OA
ATOM      5  C   UNL     1     -49.629   0.440 -22.094  0.00  0.00    +0.000 A 
ATOM      6  C   UNL     1     -48.479   1.225 -22.340  0.00  0.00    +0.000 A 
ATOM      7  C   UNL     1     -48.037   0.088 -24.329  0.00  0.00    +0.000 A 
ATOM      8  C   UNL     1     -47.221  -0.075 -25.453  0.00  0.00    +0.000 A 
ATOM      9  C   UNL     1     -47.525  -1.055 -26.403  0.00  0.00    +0.000 A 
ATOM     10  C   UNL     1     -48.644  -1.877 -26.232  0.00  0.00    +0.000 A 
ATOM     11  C   UNL     1     -49.465  -1.720 -25.110  0.00  0.00    +0.000 A 
ATOM     12  C   UNL     1     -49.168  -0.739 -24.155  0.00  0.00    +0.000 A 
ATOM     13  C   UNL     1     -49.968  -0.553 -23.024  0.00  0.00    +0.000 A 
ENDBRANCH   1   5
BRANCH   1  16
ATOM     14  O   UNL     1     -50.156  -2.841 -17.287  0.00  0.00    +0.000 OA
ATOM     15  O   UNL     1     -48.431  -1.802 -16.224  0.00  0.00    +0.000 OA
ATOM     16  C   UNL     1     -49.880   0.036 -19.634  0.00  0.00    +0.000 A 
ATOM     17  C   UNL     1     -48.801   0.674 -18.974  0.00  0.00    +0.000 A 
ATOM     18  C   UNL     1     -48.244   0.120 -17.807  0.00  0.00    +0.000 A 
ATOM     19  C   UNL     1     -48.794  -1.069 -17.337  0.00  0.00    +0.000 A 
ATOM     20  C   UNL     1     -49.824  -1.688 -17.968  0.00  0.00    +0.000 A 
ATOM     21  C   UNL     1     -50.402  -1.169 -19.124  0.00  0.00    +0.000 A 
ATOM     22  C   UNL     1     -49.283  -2.955 -16.154  0.00  0.00    +0.000 C 
ENDBRANCH   1  16
BRANCH   1  23
ATOM     23  C   UNL     1     -50.986   2.056 -20.692  0.00  0.00    +0.000 C 
BRANCH  23  25
ATOM     24  O   UNL     1     -53.340   2.303 -20.450  0.00  0.00    +0.000 OA
ATOM     25  C   UNL     1     -52.236   2.095 -19.881  0.00  0.00    +0.000 C 
ATOM     26  N   UNL     1     -52.176   1.877 -18.469  0.00  0.00    +0.000 NA
BRANCH  26  27
ATOM     27  C   UNL     1     -53.345   1.978 -17.607  0.00  0.00    +0.000 C 
BRANCH  27  28
ATOM     28  C   UNL     1     -53.716   3.438 -17.382  0.00  0.00    +0.000 C 
BRANCH  28  29
ATOM     29  C   UNL     1     -52.675   4.140 -16.574  0.00  0.00    +0.000 A 
ATOM     30  C   UNL     1     -52.453   3.785 -15.237  0.00  0.00    +0.000 A 
ATOM     31  C   UNL     1     -51.478   4.451 -14.488  0.00  0.00    +0.000 A 
ATOM     32  C   UNL     1     -50.726   5.475 -15.073  0.00  0.00    +0.000 A 
ATOM     33  C   UNL     1     -50.950   5.835 -16.405  0.00  0.00    +0.000 A 
ATOM     34  C   UNL     1     -51.926   5.170 -17.154  0.00  0.00    +0.000 A 
ATOM     35  F   UNL     1     -49.779   6.118 -14.348  0.00  0.00    +0.000 F 
ENDBRANCH  28  29
ENDBRANCH  27  28
ENDBRANCH  26  27
ENDBRANCH  23  25
ENDBRANCH   1  23
TORSDOF 7
