REMARK  Name = ZINC000032674352 ZINC32674352 PubChem-39910230
REMARK  6 active torsions:
REMARK  status: ('A' for Active; 'I' for Inactive)
REMARK    1  A    between atoms: C_2  and  O_24
REMARK    2  A    between atoms: C_5  and  C_8
REMARK    3  A    between atoms: C_8  and  C_9
REMARK    4  A    between atoms: C_8  and  N_30
REMARK    5  A    between atoms: C_9  and  N_29
REMARK    6  A    between atoms: C_10  and  C_11
REMARK                            x       y       z     vdW  Elec       q    Type
REMARK                         _______ _______ _______ _____ _____    ______ ____
ROOT
ATOM      1  C   UNL     1     -50.996   0.443 -19.937  0.00  0.00    +0.000 C 
ENDROOT
BRANCH   1   5
ATOM      2  C   UNL     1     -48.353  -0.614 -23.188  0.00  0.00    +0.000 A 
ATOM      3  C   UNL     1     -49.735  -0.845 -23.280  0.00  0.00    +0.000 A 
ATOM      4  C   UNL     1     -50.580  -0.499 -22.221  0.00  0.00    +0.000 A 
ATOM      5  C   UNL     1     -50.056   0.084 -21.063  0.00  0.00    +0.000 A 
ATOM      6  C   UNL     1     -48.674   0.314 -20.971  0.00  0.00    +0.000 A 
ATOM      7  C   UNL     1     -47.830  -0.034 -22.028  0.00  0.00    +0.000 A 
BRANCH   2   9
ATOM      8  C   UNL     1     -47.931  -1.499 -25.460  0.00  0.00    +0.000 C 
ATOM      9  O   UNL     1     -47.483  -0.944 -24.231  0.00  0.00    +0.000 OA
ENDBRANCH   2   9
ENDBRANCH   1   5
BRANCH   1  15
ATOM     10  C   UNL     1     -51.465  -1.801 -19.228  0.00  0.00    +0.000 C 
ATOM     11  C   UNL     1     -51.370  -2.790 -18.064  0.00  0.00    +0.000 C 
ATOM     12  C   UNL     1     -49.650  -1.672 -17.112  0.00  0.00    +0.000 C 
ATOM     13  C   UNL     1     -49.633  -0.613 -18.215  0.00  0.00    +0.000 C 
ATOM     14  O   UNL     1     -50.030  -2.914 -17.653  0.00  0.00    +0.000 OA
ATOM     15  N   UNL     1     -50.977  -0.488 -18.795  0.00  0.00    +0.000 NA
ENDBRANCH   1  15
BRANCH   1  16
ATOM     16  C   UNL     1     -50.836   1.894 -19.487  0.00  0.00    +0.000 C 
BRANCH  16  19
ATOM     17  C   UNL     1     -53.280   2.403 -19.038  0.00  0.00    +0.000 C 
ATOM     18  O   UNL     1     -53.565   2.305 -20.262  0.00  0.00    +0.000 OA
ATOM     19  N   UNL     1     -51.924   2.272 -18.596  0.00  0.00    +0.000 NA
BRANCH  17  20
ATOM     20  C   UNL     1     -54.369   2.687 -18.052  0.00  0.00    +0.000 C 
ATOM     21  C   UNL     1     -54.334   4.151 -17.591  0.00  0.00    +0.000 C 
ATOM     22  C   UNL     1     -53.295   4.388 -16.530  0.00  0.00    +0.000 A 
ATOM     23  C   UNL     1     -52.725   5.658 -16.398  0.00  0.00    +0.000 A 
ATOM     24  C   UNL     1     -51.787   5.905 -15.391  0.00  0.00    +0.000 A 
ATOM     25  C   UNL     1     -51.420   4.884 -14.510  0.00  0.00    +0.000 A 
ATOM     26  C   UNL     1     -51.987   3.612 -14.635  0.00  0.00    +0.000 A 
ATOM     27  C   UNL     1     -52.924   3.359 -15.645  0.00  0.00    +0.000 A 
ATOM     28  C   UNL     1     -53.522   2.027 -15.821  0.00  0.00    +0.000 C 
ATOM     29  O   UNL     1     -53.344   1.120 -14.966  0.00  0.00    +0.000 OA
ATOM     30  O   UNL     1     -54.310   1.776 -16.949  0.00  0.00    +0.000 OA
ENDBRANCH  17  20
ENDBRANCH  16  19
ENDBRANCH   1  16
TORSDOF 6
