REMARK  Name = ZINC000408597752 PubChem-125609150
REMARK  9 active torsions:
REMARK  status: ('A' for Active; 'I' for Inactive)
REMARK    1  A    between atoms: C_2  and  C_3
REMARK    2  A    between atoms: C_2  and  O_20
REMARK    3  A    between atoms: C_3  and  N_25
REMARK    4  A    between atoms: C_4  and  C_5
REMARK    5  A    between atoms: C_5  and  N_26
REMARK    6  A    between atoms: C_6  and  N_26
REMARK    7  A    between atoms: C_12  and  S_29
REMARK    8  A    between atoms: C_18  and  O_24
REMARK    9  A    between atoms: N_26  and  S_29
REMARK                            x       y       z     vdW  Elec       q    Type
REMARK                         _______ _______ _______ _____ _____    ______ ____
ROOT
ATOM      1  N   UNL     1     -50.507  -0.010 -19.425  0.00  0.00    +0.000 N 
ENDROOT
BRANCH   1   2
ATOM      2  C   UNL     1     -50.035  -0.283 -20.761  0.00  0.00    +0.000 A 
ATOM      3  C   UNL     1     -48.669  -0.195 -21.073  0.00  0.00    +0.000 A 
ATOM      4  C   UNL     1     -48.215  -0.464 -22.366  0.00  0.00    +0.000 A 
ATOM      5  C   UNL     1     -49.119  -0.825 -23.368  0.00  0.00    +0.000 A 
ATOM      6  C   UNL     1     -50.488  -0.916 -23.071  0.00  0.00    +0.000 A 
ATOM      7  C   UNL     1     -50.936  -0.646 -21.775  0.00  0.00    +0.000 A 
ATOM      8 CL   UNL     1     -48.504  -1.154 -24.980  0.00  0.00    +0.000 Cl
ATOM      9 CL   UNL     1     -51.667  -1.364 -24.292  0.00  0.00    +0.000 Cl
ENDBRANCH   1   2
BRANCH   1  12
ATOM     10  O   UNL     1     -48.652   1.544 -18.356  0.00  0.00    +0.000 OA
ATOM     11  O   UNL     1     -50.155   0.382 -16.816  0.00  0.00    +0.000 OA
ATOM     12  S   UNL     1     -49.400   0.263 -18.110  0.00  0.00    +0.000 S 
BRANCH  12  13
ATOM     13  C   UNL     1     -48.276  -1.087 -17.984  0.00  0.00    +0.000 A 
ATOM     14  C   UNL     1     -46.901  -0.831 -17.952  0.00  0.00    +0.000 A 
ATOM     15  C   UNL     1     -45.988  -1.885 -17.866  0.00  0.00    +0.000 A 
ATOM     16  C   UNL     1     -44.529  -1.603 -17.834  0.00  0.00    +0.000 C 
ATOM     17  C   UNL     1     -46.446  -3.202 -17.812  0.00  0.00    +0.000 A 
ATOM     18  C   UNL     1     -47.817  -3.465 -17.843  0.00  0.00    +0.000 A 
ATOM     19  C   UNL     1     -48.744  -2.413 -17.929  0.00  0.00    +0.000 A 
BRANCH  19  21
ATOM     20  C   UNL     1     -50.665  -3.977 -17.922  0.00  0.00    +0.000 C 
ATOM     21  O   UNL     1     -50.121  -2.665 -17.961  0.00  0.00    +0.000 OA
ENDBRANCH  19  21
ENDBRANCH  12  13
ENDBRANCH   1  12
BRANCH   1  22
ATOM     22  C   UNL     1     -51.937   0.084 -19.149  0.00  0.00    +0.000 C 
BRANCH  22  23
ATOM     23  C   UNL     1     -52.409   1.481 -19.360  0.00  0.00    +0.000 C 
ATOM     24  O   UNL     1     -52.980   1.790 -20.439  0.00  0.00    +0.000 OA
ATOM     25  N   UNL     1     -52.181   2.464 -18.350  0.00  0.00    +0.000 NA
BRANCH  25  26
ATOM     26  C   UNL     1     -52.600   3.846 -18.511  0.00  0.00    +0.000 C 
BRANCH  26  27
ATOM     27  C   UNL     1     -52.208   4.648 -17.285  0.00  0.00    +0.000 C 
BRANCH  27  29
ATOM     28  C   UNL     1     -52.365   4.876 -15.096  0.00  0.00    +0.000 C 
ATOM     29  O   UNL     1     -52.946   4.220 -16.180  0.00  0.00    +0.000 OA
ENDBRANCH  27  29
ENDBRANCH  26  27
ENDBRANCH  25  26
ENDBRANCH  22  23
ENDBRANCH   1  22
TORSDOF 9
