REMARK  Name = ZINC000408606915 PubChem-125618295
REMARK  6 active torsions:
REMARK  status: ('A' for Active; 'I' for Inactive)
REMARK    1  A    between atoms: C_2  and  C_3
REMARK    2  A    between atoms: C_3  and  N_21
REMARK    3  A    between atoms: C_4  and  C_5
REMARK    4  A    between atoms: C_6  and  C_7
REMARK    5  A    between atoms: C_8  and  N_24
REMARK    6  A    between atoms: N_22  and  N_23
REMARK                            x       y       z     vdW  Elec       q    Type
REMARK                         _______ _______ _______ _____ _____    ______ ____
ROOT
ATOM      1  C   UNL     1     -49.388  -2.262 -19.889  0.00  0.00    +0.000 A 
ATOM      2  C   UNL     1     -48.561  -2.893 -20.822  0.00  0.00    +0.000 A 
ATOM      3  C   UNL     1     -48.667  -2.102 -21.950  0.00  0.00    +0.000 A 
ATOM      4  C   UNL     1     -48.019  -2.224 -23.177  0.00  0.00    +0.000 A 
ATOM      5  C   UNL     1     -48.259  -1.233 -24.146  0.00  0.00    +0.000 A 
ATOM      6  C   UNL     1     -49.114  -0.147 -23.861  0.00  0.00    +0.000 A 
ATOM      7  C   UNL     1     -49.751  -0.047 -22.613  0.00  0.00    +0.000 A 
ATOM      8  C   UNL     1     -49.518  -1.061 -21.681  0.00  0.00    +0.000 A 
ATOM      9  N   UNL     1     -49.981  -1.165 -20.423  0.00  0.00    +0.000 N 
ATOM     10 CL   UNL     1     -47.476  -1.338 -25.707  0.00  0.00    +0.000 Cl
ENDROOT
BRANCH   9  12
ATOM     11  C   UNL     1     -51.893   0.453 -20.310  0.00  0.00    +0.000 C 
ATOM     12  N   UNL     1     -50.788  -0.245 -19.727  0.00  0.00    +0.000 NA
ATOM     13  O   UNL     1     -52.378   0.074 -21.410  0.00  0.00    +0.000 OA
BRANCH  11  14
ATOM     14  C   UNL     1     -52.499   1.581 -19.595  0.00  0.00    +0.000 C 
ATOM     15  N   UNL     1     -51.968   1.990 -18.333  0.00  0.00    +0.000 NA
ATOM     16  O   UNL     1     -53.486   2.186 -20.095  0.00  0.00    +0.000 OA
BRANCH  15  17
ATOM     17  C   UNL     1     -52.531   3.100 -17.584  0.00  0.00    +0.000 C 
BRANCH  17  19
ATOM     18  C   UNL     1     -52.109   4.245 -15.469  0.00  0.00    +0.000 C 
ATOM     19  C   UNL     1     -51.768   3.281 -16.318  0.00  0.00    +0.000 C 
ENDBRANCH  17  19
ENDBRANCH  15  17
ENDBRANCH  11  14
ENDBRANCH   9  12
BRANCH   1  20
ATOM     20  C   UNL     1     -49.583  -2.737 -18.507  0.00  0.00    +0.000 C 
ATOM     21  N   UNL     1     -48.879  -3.905 -18.060  0.00  0.00    +0.000 NA
ATOM     22  O   UNL     1     -50.363  -2.121 -17.732  0.00  0.00    +0.000 OA
BRANCH  21  23
ATOM     23  C   UNL     1     -48.945  -4.505 -16.759  0.00  0.00    +0.000 A 
ATOM     24  C   UNL     1     -48.182  -5.650 -16.507  0.00  0.00    +0.000 A 
ATOM     25  C   UNL     1     -48.220  -6.263 -15.251  0.00  0.00    +0.000 A 
ATOM     26  C   UNL     1     -49.023  -5.732 -14.238  0.00  0.00    +0.000 A 
ATOM     27  C   UNL     1     -49.788  -4.588 -14.481  0.00  0.00    +0.000 A 
ATOM     28  C   UNL     1     -49.749  -3.977 -15.737  0.00  0.00    +0.000 A 
ATOM     29 CL   UNL     1     -49.071  -6.500 -12.666  0.00  0.00    +0.000 Cl
ENDBRANCH  21  23
ENDBRANCH   1  20
TORSDOF 6
