REMARK  Name = ZINC000181041974 MolPort-044-576-750 PubChem-132290894
REMARK  3 active torsions:
REMARK  status: ('A' for Active; 'I' for Inactive)
REMARK    1  A    between atoms: C_9  and  C_10
REMARK    2  A    between atoms: C_10  and  O_23
REMARK    3  A    between atoms: C_11  and  O_23
REMARK                            x       y       z     vdW  Elec       q    Type
REMARK                         _______ _______ _______ _____ _____    ______ ____
ROOT
ATOM      1  C   UNL     1     -52.346   3.556 -15.560  0.00  0.00    +0.000 C 
ATOM      2  C   UNL     1     -51.978   2.119 -15.703  0.00  0.00    +0.000 A 
ATOM      3  C   UNL     1     -52.035   1.475 -16.947  0.00  0.00    +0.000 A 
ATOM      4  C   UNL     1     -51.670   0.120 -17.040  0.00  0.00    +0.000 A 
ATOM      5  C   UNL     1     -51.229   0.060 -14.701  0.00  0.00    +0.000 A 
ATOM      6  C   UNL     1     -51.575   1.406 -14.574  0.00  0.00    +0.000 A 
ATOM      7  C   UNL     1     -52.558  -0.007 -19.393  0.00  0.00    +0.000 C 
ATOM      8  C   UNL     1     -52.611   1.489 -19.359  0.00  0.00    +0.000 C 
ATOM      9  C   UNL     1     -51.004  -1.782 -18.560  0.00  0.00    +0.000 C 
ATOM     10  N   UNL     1     -51.282  -0.547 -15.916  0.00  0.00    +0.000 NA
ATOM     11  N   UNL     1     -51.708  -0.545 -18.323  0.00  0.00    +0.000 N 
ATOM     12  N   UNL     1     -52.435   2.182 -18.123  0.00  0.00    +0.000 NA
ATOM     13  O   UNL     1     -52.873   2.132 -20.407  0.00  0.00    +0.000 OA
ATOM     14  O   UNL     1     -50.145  -2.201 -17.738  0.00  0.00    +0.000 OA
ENDROOT
BRANCH   9  15
ATOM     15  C   UNL     1     -51.224  -2.564 -19.812  0.00  0.00    +0.000 C 
BRANCH  15  16
ATOM     16  O   UNL     1     -50.422  -2.025 -20.855  0.00  0.00    +0.000 OA
BRANCH  16  17
ATOM     17  C   UNL     1     -50.444  -2.522 -22.163  0.00  0.00    +0.000 A 
ATOM     18  C   UNL     1     -51.267  -3.606 -22.511  0.00  0.00    +0.000 A 
ATOM     19  C   UNL     1     -51.281  -4.093 -23.819  0.00  0.00    +0.000 A 
ATOM     20  C   UNL     1     -50.473  -3.503 -24.791  0.00  0.00    +0.000 A 
ATOM     21  C   UNL     1     -49.648  -2.424 -24.463  0.00  0.00    +0.000 A 
ATOM     22  C   UNL     1     -49.630  -1.929 -23.145  0.00  0.00    +0.000 A 
ATOM     23  C   UNL     1     -48.754  -0.775 -22.782  0.00  0.00    +0.000 C 
ATOM     24 CL   UNL     1     -48.651  -1.718 -25.726  0.00  0.00    +0.000 Cl
ENDBRANCH  16  17
ENDBRANCH  15  16
ENDBRANCH   9  15
TORSDOF 3
