REMARK  Name = ZINC000030726767 ZINC30726767 PubChem-37870901
REMARK  7 active torsions:
REMARK  status: ('A' for Active; 'I' for Inactive)
REMARK    1  A    between atoms: C_2  and  O_25
REMARK    2  A    between atoms: C_3  and  O_25
REMARK    3  A    between atoms: C_8  and  N_29
REMARK    4  A    between atoms: C_9  and  C_10
REMARK    5  A    between atoms: C_10  and  C_11
REMARK    6  A    between atoms: C_11  and  C_12
REMARK    7  A    between atoms: C_18  and  O_27
REMARK                            x       y       z     vdW  Elec       q    Type
REMARK                         _______ _______ _______ _____ _____    ______ ____
ROOT
ATOM      1  C   UNL     1     -52.455   1.629 -20.011  0.00  0.00    +0.000 C 
ATOM      2  O   UNL     1     -53.278   2.363 -20.616  0.00  0.00    +0.000 OA
ATOM      3  N   UNL     1     -52.258   1.819 -18.603  0.00  0.00    +0.000 NA
ENDROOT
BRANCH   3   9
ATOM      4  C   UNL     1     -51.223   1.445 -16.406  0.00  0.00    +0.000 A 
ATOM      5  C   UNL     1     -50.542   0.611 -15.493  0.00  0.00    +0.000 A 
ATOM      6  C   UNL     1     -50.206  -0.679 -15.891  0.00  0.00    +0.000 A 
ATOM      7  C   UNL     1     -50.529  -1.145 -17.128  0.00  0.00    +0.000 A 
ATOM      8  C   UNL     1     -51.203  -0.358 -18.056  0.00  0.00    +0.000 A 
ATOM      9  C   UNL     1     -51.545   0.962 -17.698  0.00  0.00    +0.000 A 
ATOM     10  C   UNL     1     -49.438  -2.902 -16.126  0.00  0.00    +0.000 C 
ATOM     11  C   UNL     1     -49.499  -1.731 -15.119  0.00  0.00    +0.000 C 
ATOM     12  C   UNL     1     -50.166  -4.104 -15.558  0.00  0.00    +0.000 C 
ATOM     13  O   UNL     1     -50.106  -2.444 -17.302  0.00  0.00    +0.000 OA
BRANCH   4  14
ATOM     14  O   UNL     1     -51.583   2.752 -16.058  0.00  0.00    +0.000 OA
BRANCH  14  16
ATOM     15  C   UNL     1     -51.806   4.739 -14.737  0.00  0.00    +0.000 C 
ATOM     16  C   UNL     1     -51.297   3.315 -14.785  0.00  0.00    +0.000 C 
ENDBRANCH  14  16
ENDBRANCH   4  14
ENDBRANCH   3   9
BRANCH   1  17
ATOM     17  C   UNL     1     -51.657   0.645 -20.801  0.00  0.00    +0.000 C 
BRANCH  17  18
ATOM     18  C   UNL     1     -50.386   1.304 -21.308  0.00  0.00    +0.000 C 
BRANCH  18  19
ATOM     19  C   UNL     1     -49.674   0.404 -22.276  0.00  0.00    +0.000 A 
ATOM     20  C   UNL     1     -49.721   0.687 -23.665  0.00  0.00    +0.000 A 
ATOM     21  C   UNL     1     -49.017  -0.170 -24.523  0.00  0.00    +0.000 A 
ATOM     22  C   UNL     1     -48.364  -1.263 -24.027  0.00  0.00    +0.000 A 
ATOM     23  C   UNL     1     -48.940  -0.727 -21.816  0.00  0.00    +0.000 A 
ATOM     24  C   UNL     1     -48.836  -1.043 -20.362  0.00  0.00    +0.000 C 
ATOM     25  C   UNL     1     -48.835  -0.278 -25.905  0.00  0.00    +0.000 A 
ATOM     26  C   UNL     1     -47.108  -3.237 -24.901  0.00  0.00    +0.000 C 
ATOM     27  C   UNL     1     -50.565   1.805 -24.184  0.00  0.00    +0.000 C 
ATOM     28  N   UNL     1     -48.313  -1.551 -22.704  0.00  0.00    +0.000 NA
ATOM     29  N   UNL     1     -47.848  -1.993 -25.025  0.00  0.00    +0.000 N 
ATOM     30  N   UNL     1     -48.135  -1.406 -26.178  0.00  0.00    +0.000 NA
BRANCH  25  32
ATOM     31  C   UNL     1     -49.215   2.003 -26.774  0.00  0.00    +0.000 C 
ATOM     32  O   UNL     1     -49.258   0.593 -26.911  0.00  0.00    +0.000 OA
ENDBRANCH  25  32
ENDBRANCH  18  19
ENDBRANCH  17  18
ENDBRANCH   1  17
TORSDOF 7
