REMARK  Name = ZINC000096182884 ZINC96182884 PubChem-97458176
REMARK  3 active torsions:
REMARK  status: ('A' for Active; 'I' for Inactive)
REMARK    1  A    between atoms: C_2  and  C_13
REMARK    2  A    between atoms: C_3  and  C_6
REMARK    3  A    between atoms: C_7  and  N_20
REMARK                            x       y       z     vdW  Elec       q    Type
REMARK                         _______ _______ _______ _____ _____    ______ ____
ROOT
ATOM      1  C   UNL     1     -48.363  -0.283 -18.974  0.00  0.00    +0.000 C 
ATOM      2  C   UNL     1     -50.302   0.309 -20.474  0.00  0.00    +0.000 C 
ATOM      3  C   UNL     1     -51.844   0.323 -20.494  0.00  0.00    +0.000 C 
ATOM      4  C   UNL     1     -52.102  -1.178 -18.742  0.00  0.00    +0.000 C 
ATOM      5  C   UNL     1     -50.624  -1.279 -18.556  0.00  0.00    +0.000 C 
ATOM      6  N   UNL     1     -49.774  -0.407 -19.308  0.00  0.00    +0.000 N 
ATOM      7  O   UNL     1     -52.422  -0.909 -20.090  0.00  0.00    +0.000 OA
ATOM      8  O   UNL     1     -50.145  -2.104 -17.734  0.00  0.00    +0.000 OA
ENDROOT
BRANCH   2   9
ATOM      9  C   UNL     1     -49.762  -0.272 -21.746  0.00  0.00    +0.000 A 
ATOM     10  C   UNL     1     -49.000   0.538 -22.595  0.00  0.00    +0.000 A 
ATOM     11  C   UNL     1     -48.480   0.016 -23.783  0.00  0.00    +0.000 A 
ATOM     12  C   UNL     1     -48.718  -1.319 -24.125  0.00  0.00    +0.000 A 
ATOM     13  C   UNL     1     -49.477  -2.132 -23.279  0.00  0.00    +0.000 A 
ATOM     14  C   UNL     1     -49.997  -1.611 -22.091  0.00  0.00    +0.000 A 
ATOM     15  F   UNL     1     -48.214  -1.823 -25.276  0.00  0.00    +0.000 F 
ENDBRANCH   2   9
BRANCH   3  16
ATOM     16  C   UNL     1     -52.437   1.526 -19.821  0.00  0.00    +0.000 C 
ATOM     17  N   UNL     1     -52.140   1.802 -18.444  0.00  0.00    +0.000 NA
ATOM     18  O   UNL     1     -53.178   2.293 -20.491  0.00  0.00    +0.000 OA
BRANCH  17  19
ATOM     19  C   UNL     1     -52.622   2.904 -17.665  0.00  0.00    +0.000 A 
ATOM     20  C   UNL     1     -53.486   3.872 -18.201  0.00  0.00    +0.000 A 
ATOM     21  C   UNL     1     -53.937   4.933 -17.409  0.00  0.00    +0.000 A 
ATOM     22  C   UNL     1     -53.527   5.033 -16.077  0.00  0.00    +0.000 A 
ATOM     23  C   UNL     1     -52.667   4.072 -15.537  0.00  0.00    +0.000 A 
ATOM     24  C   UNL     1     -52.217   3.012 -16.330  0.00  0.00    +0.000 A 
ATOM     25  F   UNL     1     -52.270   4.169 -14.246  0.00  0.00    +0.000 F 
ENDBRANCH  17  19
ENDBRANCH   3  16
TORSDOF 3
