REMARK  Name = ZINC000096181230
REMARK  4 active torsions:
REMARK  status: ('A' for Active; 'I' for Inactive)
REMARK    1  A    between atoms: C_3  and  C_4
REMARK    2  A    between atoms: C_4  and  N_20
REMARK    3  A    between atoms: C_5  and  C_6
REMARK    4  A    between atoms: C_10  and  C_11
REMARK                            x       y       z     vdW  Elec       q    Type
REMARK                         _______ _______ _______ _____ _____    ______ ____
ROOT
ATOM      1  C   UNL     1     -51.690   0.032 -19.924  0.00  0.00    +0.000 C 
ATOM      2  C   UNL     1     -51.984  -0.998 -18.825  0.00  0.00    +0.000 C 
ATOM      3  C   UNL     1     -50.638  -1.432 -18.402  0.00  0.00    +0.000 C 
ATOM      4  C   UNL     1     -48.194  -0.842 -18.737  0.00  0.00    +0.000 C 
ATOM      5  C   UNL     1     -50.161   0.193 -20.020  0.00  0.00    +0.000 C 
ATOM      6  N   UNL     1     -49.600  -0.781 -19.103  0.00  0.00    +0.000 N 
ATOM      7  O   UNL     1     -50.430  -2.285 -17.499  0.00  0.00    +0.000 OA
ENDROOT
BRANCH   5   8
ATOM      8  C   UNL     1     -49.684  -0.044 -21.421  0.00  0.00    +0.000 A 
ATOM      9  C   UNL     1     -49.849  -1.289 -22.046  0.00  0.00    +0.000 A 
ATOM     10  C   UNL     1     -49.397  -1.483 -23.354  0.00  0.00    +0.000 A 
ATOM     11  C   UNL     1     -48.779  -0.435 -24.043  0.00  0.00    +0.000 A 
ATOM     12  C   UNL     1     -48.297  -0.642 -25.433  0.00  0.00    +0.000 C 
ATOM     13  C   UNL     1     -48.613   0.807 -23.423  0.00  0.00    +0.000 A 
ATOM     14  C   UNL     1     -49.065   1.002 -22.114  0.00  0.00    +0.000 A 
ENDBRANCH   5   8
BRANCH   1  15
ATOM     15  C   UNL     1     -52.334   1.341 -19.610  0.00  0.00    +0.000 C 
ATOM     16  N   UNL     1     -52.014   2.027 -18.397  0.00  0.00    +0.000 NA
ATOM     17  O   UNL     1     -53.151   1.841 -20.429  0.00  0.00    +0.000 OA
BRANCH  16  18
ATOM     18  C   UNL     1     -52.595   3.317 -18.064  0.00  0.00    +0.000 C 
BRANCH  18  21
ATOM     19  C   UNL     1     -53.897   2.726 -15.231  0.00  0.00    +0.000 C 
ATOM     20  C   UNL     1     -52.644   3.490 -15.501  0.00  0.00    +0.000 A 
ATOM     21  C   UNL     1     -52.095   3.761 -16.733  0.00  0.00    +0.000 A 
ATOM     22  C   UNL     1     -50.925   4.459 -16.484  0.00  0.00    +0.000 A 
ATOM     23  C   UNL     1     -52.036   3.969 -13.127  0.00  0.00    +0.000 C 
ATOM     24  N   UNL     1     -50.804   4.606 -15.145  0.00  0.00    +0.000 NA
ATOM     25  N   UNL     1     -51.841   4.021 -14.566  0.00  0.00    +0.000 N 
ENDBRANCH  18  21
ENDBRANCH  16  18
ENDBRANCH   1  15
TORSDOF 4
