REMARK  Name = ZINC000012706054 ZINC12706054 PubChem-25450279
REMARK  8 active torsions:
REMARK  status: ('A' for Active; 'I' for Inactive)
REMARK    1  A    between atoms: C_2  and  C_3
REMARK    2  A    between atoms: C_2  and  N_30
REMARK    3  A    between atoms: C_4  and  C_5
REMARK    4  A    between atoms: C_4  and  N_29
REMARK    5  A    between atoms: C_9  and  N_30
REMARK    6  A    between atoms: C_15  and  C_16
REMARK    7  A    between atoms: C_19  and  O_28
REMARK    8  A    between atoms: C_20  and  O_27
REMARK                            x       y       z     vdW  Elec       q    Type
REMARK                         _______ _______ _______ _____ _____    ______ ____
ROOT
ATOM      1  C   UNL     1     -48.830   1.954 -18.798  0.00  0.00    +0.000 C 
ATOM      2  O   UNL     1     -48.283   3.019 -18.400  0.00  0.00    +0.000 OA
ATOM      3  N   UNL     1     -49.702   1.998 -19.940  0.00  0.00    +0.000 N 
ENDROOT
BRANCH   3   4
ATOM      4  C   UNL     1     -49.479   1.132 -21.082  0.00  0.00    +0.000 A 
ATOM      5  C   UNL     1     -50.473   0.950 -22.057  0.00  0.00    +0.000 A 
ATOM      6  C   UNL     1     -50.251   0.120 -23.159  0.00  0.00    +0.000 A 
ATOM      7  C   UNL     1     -49.028  -0.537 -23.305  0.00  0.00    +0.000 A 
ATOM      8  C   UNL     1     -48.024  -0.361 -22.346  0.00  0.00    +0.000 A 
ATOM      9  C   UNL     1     -48.251   0.469 -21.245  0.00  0.00    +0.000 A 
ATOM     10 CL   UNL     1     -46.479  -1.174 -22.505  0.00  0.00    +0.000 Cl
ATOM     11  F   UNL     1     -48.823  -1.337 -24.381  0.00  0.00    +0.000 F 
ENDBRANCH   3   4
BRANCH   1  12
ATOM     12  C   UNL     1     -48.611   0.698 -18.051  0.00  0.00    +0.000 A 
ATOM     13  C   UNL     1     -47.636   0.632 -17.052  0.00  0.00    +0.000 A 
ATOM     14  C   UNL     1     -47.442  -0.548 -16.334  0.00  0.00    +0.000 A 
ATOM     15  C   UNL     1     -48.221  -1.688 -16.599  0.00  0.00    +0.000 A 
ATOM     16  C   UNL     1     -49.216  -1.625 -17.606  0.00  0.00    +0.000 A 
ATOM     17  C   UNL     1     -49.397  -0.431 -18.312  0.00  0.00    +0.000 A 
BRANCH  16  19
ATOM     18  C   UNL     1     -50.003  -3.988 -17.348  0.00  0.00    +0.000 C 
ATOM     19  O   UNL     1     -50.048  -2.701 -17.949  0.00  0.00    +0.000 OA
ENDBRANCH  16  19
BRANCH  15  21
ATOM     20  C   UNL     1     -47.032  -2.985 -14.851  0.00  0.00    +0.000 C 
ATOM     21  O   UNL     1     -48.013  -2.866 -15.873  0.00  0.00    +0.000 OA
ENDBRANCH  15  21
ENDBRANCH   1  12
BRANCH   3  23
ATOM     22  C   UNL     1     -50.813   3.910 -21.084  0.00  0.00    +0.000 C 
ATOM     23  C   UNL     1     -50.795   2.974 -19.882  0.00  0.00    +0.000 C 
BRANCH  23  24
ATOM     24  C   UNL     1     -52.122   2.326 -19.600  0.00  0.00    +0.000 C 
ATOM     25  O   UNL     1     -52.860   1.952 -20.549  0.00  0.00    +0.000 OA
ATOM     26  N   UNL     1     -52.560   2.110 -18.254  0.00  0.00    +0.000 NA
BRANCH  26  27
ATOM     27  C   UNL     1     -51.760   2.459 -17.087  0.00  0.00    +0.000 C 
BRANCH  27  28
ATOM     28  C   UNL     1     -51.735   3.966 -16.889  0.00  0.00    +0.000 C 
ATOM     29  C   UNL     1     -50.740   4.317 -15.812  0.00  0.00    +0.000 C 
ATOM     30  C   UNL     1     -51.381   5.471 -15.101  0.00  0.00    +0.000 C 
ATOM     31  C   UNL     1     -52.748   5.583 -15.739  0.00  0.00    +0.000 C 
ATOM     32  O   UNL     1     -52.998   4.418 -16.480  0.00  0.00    +0.000 OA
ENDBRANCH  27  28
ENDBRANCH  26  27
ENDBRANCH  23  24
ENDBRANCH   3  23
TORSDOF 8
