REMARK  Name = ZINC000225679518 PubChem-100720123
REMARK  7 active torsions:
REMARK  status: ('A' for Active; 'I' for Inactive)
REMARK    1  A    between atoms: C_5  and  S_21
REMARK    2  A    between atoms: C_8  and  N_20
REMARK    3  A    between atoms: C_10  and  O_28
REMARK    4  A    between atoms: C_11  and  O_27
REMARK    5  A    between atoms: C_13  and  C_14
REMARK    6  A    between atoms: C_14  and  O_26
REMARK    7  A    between atoms: N_20  and  S_21
REMARK                            x       y       z     vdW  Elec       q    Type
REMARK                         _______ _______ _______ _____ _____    ______ ____
ROOT
ATOM      1  N   UNL     1     -52.113   1.705 -18.320  0.00  0.00    +0.000 NA
ENDROOT
BRANCH   1   2
ATOM      2  C   UNL     1     -51.301   0.811 -17.547  0.00  0.00    +0.000 A 
ATOM      3  C   UNL     1     -51.055  -0.485 -18.014  0.00  0.00    +0.000 A 
ATOM      4  C   UNL     1     -50.256  -1.387 -17.299  0.00  0.00    +0.000 A 
ATOM      5  C   UNL     1     -49.691  -0.978 -16.070  0.00  0.00    +0.000 A 
ATOM      6  C   UNL     1     -49.940   0.316 -15.605  0.00  0.00    +0.000 A 
ATOM      7  C   UNL     1     -50.734   1.223 -16.320  0.00  0.00    +0.000 A 
BRANCH   7   8
ATOM      8  C   UNL     1     -50.941   2.578 -15.751  0.00  0.00    +0.000 C 
ATOM      9  O   UNL     1     -50.402   2.879 -14.650  0.00  0.00    +0.000 OA
BRANCH   8  11
ATOM     10  C   UNL     1     -51.938   4.826 -15.898  0.00  0.00    +0.000 C 
ATOM     11  O   UNL     1     -51.724   3.523 -16.418  0.00  0.00    +0.000 OA
ENDBRANCH   8  11
ENDBRANCH   7   8
BRANCH   5  13
ATOM     12  C   UNL     1     -48.525  -3.138 -15.582  0.00  0.00    +0.000 C 
ATOM     13  O   UNL     1     -48.880  -1.798 -15.272  0.00  0.00    +0.000 OA
ENDBRANCH   5  13
BRANCH   4  15
ATOM     14  C   UNL     1     -50.553  -3.123 -19.043  0.00  0.00    +0.000 C 
ATOM     15  O   UNL     1     -50.025  -2.672 -17.803  0.00  0.00    +0.000 OA
ENDBRANCH   4  15
ENDBRANCH   1   2
BRANCH   1  16
ATOM     16  S   UNL     1     -52.831   1.290 -19.843  0.00  0.00    +0.000 S 
ATOM     17  O   UNL     1     -53.879   0.235 -19.621  0.00  0.00    +0.000 OA
ATOM     18  O   UNL     1     -53.478   2.509 -20.436  0.00  0.00    +0.000 OA
BRANCH  16  23
ATOM     19  C   UNL     1     -48.558  -1.800 -24.321  0.00  0.00    +0.000 C 
ATOM     20  C   UNL     1     -49.622  -0.277 -22.657  0.00  0.00    +0.000 A 
ATOM     21  C   UNL     1     -49.408   0.869 -21.902  0.00  0.00    +0.000 A 
ATOM     22  C   UNL     1     -50.373   1.380 -21.040  0.00  0.00    +0.000 A 
ATOM     23  C   UNL     1     -51.599   0.702 -20.944  0.00  0.00    +0.000 A 
ATOM     24  C   UNL     1     -51.828  -0.461 -21.705  0.00  0.00    +0.000 A 
ATOM     25  C   UNL     1     -50.840  -0.959 -22.569  0.00  0.00    +0.000 A 
ATOM     26  C   UNL     1     -47.533   0.222 -23.305  0.00  0.00    +0.000 A 
ATOM     27  N   UNL     1     -48.572  -0.638 -23.443  0.00  0.00    +0.000 N 
ATOM     28  S   UNL     1     -47.865   1.466 -22.209  0.00  0.00    +0.000 S 
ATOM     29  O   UNL     1     -46.445   0.104 -23.928  0.00  0.00    +0.000 OA
ENDBRANCH  16  23
ENDBRANCH   1  16
TORSDOF 7
