REMARK  Name = ZINC000299749536 PubChem-125151685
REMARK  6 active torsions:
REMARK  status: ('A' for Active; 'I' for Inactive)
REMARK    1  A    between atoms: C_2  and  O_22
REMARK    2  A    between atoms: C_5  and  C_6
REMARK    3  A    between atoms: C_7  and  C_8
REMARK    4  A    between atoms: C_9  and  C_10
REMARK    5  A    between atoms: C_9  and  N_27
REMARK    6  A    between atoms: C_13  and  C_14
REMARK                            x       y       z     vdW  Elec       q    Type
REMARK                         _______ _______ _______ _____ _____    ______ ____
ROOT
ATOM      1  C   UNL     1     -50.119   0.352 -19.959  0.00  0.00    +0.000 C 
ATOM      2  C   UNL     1     -51.643   0.134 -19.940  0.00  0.00    +0.000 C 
ATOM      3  C   UNL     1     -51.945  -0.965 -18.912  0.00  0.00    +0.000 C 
ATOM      4  C   UNL     1     -50.605  -1.359 -18.436  0.00  0.00    +0.000 C 
ATOM      5  C   UNL     1     -48.182  -0.631 -18.594  0.00  0.00    +0.000 C 
ATOM      6  O   UNL     1     -50.405  -2.242 -17.561  0.00  0.00    +0.000 OA
ATOM      7  N   UNL     1     -49.563  -0.631 -19.049  0.00  0.00    +0.000 N 
ENDROOT
BRANCH   1  11
ATOM      8  C   UNL     1     -48.547  -0.088 -23.945  0.00  0.00    +0.000 A 
ATOM      9  C   UNL     1     -49.132  -1.190 -23.298  0.00  0.00    +0.000 A 
ATOM     10  C   UNL     1     -49.642  -1.056 -22.004  0.00  0.00    +0.000 A 
ATOM     11  C   UNL     1     -49.572   0.179 -21.344  0.00  0.00    +0.000 A 
ATOM     12  C   UNL     1     -48.993   1.276 -21.989  0.00  0.00    +0.000 A 
ATOM     13  C   UNL     1     -48.482   1.142 -23.283  0.00  0.00    +0.000 A 
BRANCH   8  15
ATOM     14  C   UNL     1     -48.052  -1.399 -25.983  0.00  0.00    +0.000 C 
ATOM     15  O   UNL     1     -48.028  -0.189 -25.239  0.00  0.00    +0.000 OA
ENDBRANCH   8  15
ENDBRANCH   1  11
BRANCH   2  16
ATOM     16  C   UNL     1     -52.350   1.399 -19.583  0.00  0.00    +0.000 C 
ATOM     17  O   UNL     1     -53.178   1.893 -20.394  0.00  0.00    +0.000 OA
ATOM     18  N   UNL     1     -52.085   2.043 -18.335  0.00  0.00    +0.000 NA
BRANCH  18  19
ATOM     19  C   UNL     1     -52.746   3.279 -17.949  0.00  0.00    +0.000 C 
BRANCH  19  20
ATOM     20  C   UNL     1     -52.260   3.709 -16.610  0.00  0.00    +0.000 A 
ATOM     21  C   UNL     1     -52.907   3.262 -15.454  0.00  0.00    +0.000 A 
ATOM     22  C   UNL     1     -52.436   3.646 -14.196  0.00  0.00    +0.000 A 
ATOM     23  C   UNL     1     -51.309   4.474 -14.084  0.00  0.00    +0.000 A 
ATOM     24  C   UNL     1     -50.660   4.912 -15.246  0.00  0.00    +0.000 A 
ATOM     25  C   UNL     1     -51.132   4.528 -16.505  0.00  0.00    +0.000 A 
BRANCH  23  26
ATOM     26  C   UNL     1     -50.809   4.881 -12.761  0.00  0.00    +0.000 C 
ATOM     27  O   UNL     1     -51.387   4.491 -11.712  0.00  0.00    +0.000 OA
ATOM     28  O   UNL     1     -49.691   5.701 -12.656  0.00  0.00    +0.000 OA
ENDBRANCH  23  26
ENDBRANCH  19  20
ENDBRANCH  18  19
ENDBRANCH   2  16
TORSDOF 6
