REMARK  Name = ZINC000072242259 PubChem-95740472
REMARK  7 active torsions:
REMARK  status: ('A' for Active; 'I' for Inactive)
REMARK    1  A    between atoms: C_2  and  N_19
REMARK    2  A    between atoms: C_3  and  N_19
REMARK    3  A    between atoms: C_5  and  C_6
REMARK    4  A    between atoms: C_5  and  N_19
REMARK    5  A    between atoms: C_6  and  N_20
REMARK    6  A    between atoms: C_7  and  C_8
REMARK    7  A    between atoms: C_12  and  C_13
REMARK                            x       y       z     vdW  Elec       q    Type
REMARK                         _______ _______ _______ _____ _____    ______ ____
ROOT
ATOM      1  C   UNL     1     -51.669  -0.006 -20.011  0.00  0.00    +0.000 C 
ATOM      2  C   UNL     1     -51.974  -1.066 -18.944  0.00  0.00    +0.000 C 
ATOM      3  C   UNL     1     -50.634  -1.505 -18.509  0.00  0.00    +0.000 C 
ATOM      4  C   UNL     1     -48.188  -0.910 -18.805  0.00  0.00    +0.000 C 
ATOM      5  C   UNL     1     -50.138   0.139 -20.102  0.00  0.00    +0.000 C 
ATOM      6  N   UNL     1     -49.589  -0.844 -19.188  0.00  0.00    +0.000 N 
ATOM      7  O   UNL     1     -50.437  -2.370 -17.616  0.00  0.00    +0.000 OA
ENDROOT
BRANCH   5   8
ATOM      8  C   UNL     1     -49.658  -0.099 -21.502  0.00  0.00    +0.000 A 
ATOM      9  C   UNL     1     -49.002   0.932 -22.182  0.00  0.00    +0.000 A 
ATOM     10  C   UNL     1     -48.545   0.733 -23.488  0.00  0.00    +0.000 A 
ATOM     11  C   UNL     1     -48.744  -0.498 -24.119  0.00  0.00    +0.000 A 
ATOM     12  C   UNL     1     -49.400  -1.532 -23.445  0.00  0.00    +0.000 A 
ATOM     13  C   UNL     1     -49.856  -1.334 -22.139  0.00  0.00    +0.000 A 
ATOM     14  F   UNL     1     -48.300  -0.690 -25.385  0.00  0.00    +0.000 F 
ENDBRANCH   5   8
BRANCH   1  15
ATOM     15  C   UNL     1     -52.296   1.298 -19.643  0.00  0.00    +0.000 C 
ATOM     16  N   UNL     1     -51.910   1.965 -18.440  0.00  0.00    +0.000 NA
ATOM     17  O   UNL     1     -53.172   1.798 -20.398  0.00  0.00    +0.000 OA
BRANCH  16  18
ATOM     18  C   UNL     1     -52.527   3.209 -18.009  0.00  0.00    +0.000 C 
BRANCH  18  19
ATOM     19  C   UNL     1     -53.191   3.020 -16.640  0.00  0.00    +0.000 C 
BRANCH  19  20
ATOM     20  N   UNL     1     -52.270   3.138 -15.498  0.00  0.00    +0.000 NA
BRANCH  20  22
ATOM     21  C   UNL     1     -52.381   5.443 -14.720  0.00  0.00    +0.000 C 
ATOM     22  C   UNL     1     -51.595   4.429 -15.530  0.00  0.00    +0.000 C 
ENDBRANCH  20  22
BRANCH  20  23
ATOM     23  C   UNL     1     -51.251   2.096 -15.551  0.00  0.00    +0.000 C 
ATOM     24  C   UNL     1     -51.756   0.840 -14.867  0.00  0.00    +0.000 C 
ENDBRANCH  20  23
ENDBRANCH  19  20
ENDBRANCH  18  19
ENDBRANCH  16  18
ENDBRANCH   1  15
TORSDOF 7
