REMARK  Name = ZINC000096181878 ZINC96181878 PubChem-97457708
REMARK  5 active torsions:
REMARK  status: ('A' for Active; 'I' for Inactive)
REMARK    1  A    between atoms: C_2  and  C_3
REMARK    2  A    between atoms: C_3  and  C_4
REMARK    3  A    between atoms: C_4  and  N_18
REMARK    4  A    between atoms: C_5  and  C_6
REMARK    5  A    between atoms: C_10  and  C_11
REMARK                            x       y       z     vdW  Elec       q    Type
REMARK                         _______ _______ _______ _____ _____    ______ ____
ROOT
ATOM      1  C   UNL     1     -51.884   0.435 -20.533  0.00  0.00    +0.000 C 
ATOM      2  C   UNL     1     -52.553  -0.905 -20.222  0.00  0.00    +0.000 C 
ATOM      3  C   UNL     1     -52.187  -1.412 -18.832  0.00  0.00    +0.000 C 
ATOM      4  C   UNL     1     -50.708  -1.383 -18.615  0.00  0.00    +0.000 C 
ATOM      5  C   UNL     1     -50.353   0.359 -20.430  0.00  0.00    +0.000 C 
ATOM      6  C   UNL     1     -48.530  -0.162 -18.788  0.00  0.00    +0.000 C 
ATOM      7  N   UNL     1     -49.893  -0.382 -19.249  0.00  0.00    +0.000 N 
ATOM      8  O   UNL     1     -50.190  -2.219 -17.827  0.00  0.00    +0.000 OA
ENDROOT
BRANCH   5   9
ATOM      9  C   UNL     1     -49.741  -0.191 -21.685  0.00  0.00    +0.000 A 
ATOM     10  C   UNL     1     -49.956  -1.520 -22.079  0.00  0.00    +0.000 A 
ATOM     11  C   UNL     1     -49.366  -2.011 -23.247  0.00  0.00    +0.000 A 
ATOM     12  C   UNL     1     -48.558  -1.177 -24.025  0.00  0.00    +0.000 A 
ATOM     13  C   UNL     1     -48.339   0.147 -23.634  0.00  0.00    +0.000 A 
ATOM     14  C   UNL     1     -48.928   0.638 -22.466  0.00  0.00    +0.000 A 
ATOM     15  F   UNL     1     -47.987  -1.652 -25.158  0.00  0.00    +0.000 F 
ENDBRANCH   5   9
BRANCH   1  16
ATOM     16  C   UNL     1     -52.450   1.558 -19.720  0.00  0.00    +0.000 C 
ATOM     17  N   UNL     1     -52.087   1.714 -18.346  0.00  0.00    +0.000 NA
ATOM     18  O   UNL     1     -53.267   2.353 -20.257  0.00  0.00    +0.000 OA
BRANCH  17  19
ATOM     19  C   UNL     1     -52.623   2.784 -17.524  0.00  0.00    +0.000 C 
BRANCH  19  20
ATOM     20  C   UNL     1     -52.049   2.679 -16.124  0.00  0.00    +0.000 C 
BRANCH  20  22
ATOM     21  C   UNL     1     -51.908   5.109 -15.583  0.00  0.00    +0.000 C 
ATOM     22  C   UNL     1     -52.587   3.795 -15.245  0.00  0.00    +0.000 C 
ENDBRANCH  20  22
ENDBRANCH  19  20
ENDBRANCH  17  19
ENDBRANCH   1  16
TORSDOF 5
