REMARK  Name = ZINC000020135762 ZINC20135762 PubChem-92655563
REMARK  6 active torsions:
REMARK  status: ('A' for Active; 'I' for Inactive)
REMARK    1  A    between atoms: C_2  and  O_22
REMARK    2  A    between atoms: C_5  and  C_8
REMARK    3  A    between atoms: C_12  and  C_13
REMARK    4  A    between atoms: C_15  and  O_27
REMARK    5  A    between atoms: C_16  and  O_26
REMARK    6  A    between atoms: C_17  and  O_25
REMARK                            x       y       z     vdW  Elec       q    Type
REMARK                         _______ _______ _______ _____ _____    ______ ____
ROOT
ATOM      1  C   UNL     1     -51.833  -1.307 -20.650  0.00  0.00    +0.000 C 
ATOM      2  C   UNL     1     -51.565  -2.356 -19.561  0.00  0.00    +0.000 C 
ATOM      3  C   UNL     1     -50.835  -1.753 -18.405  0.00  0.00    +0.000 C 
ATOM      4  C   UNL     1     -51.830   0.446 -18.945  0.00  0.00    +0.000 C 
ATOM      5  C   UNL     1     -52.979   2.710 -19.236  0.00  0.00    +0.000 C 
ATOM      6  O   UNL     1     -50.072  -2.460 -17.698  0.00  0.00    +0.000 OA
ATOM      7  O   UNL     1     -53.407   2.431 -20.390  0.00  0.00    +0.000 OA
ATOM      8  N   UNL     1     -51.032  -0.376 -18.090  0.00  0.00    +0.000 NA
ATOM      9  N   UNL     1     -52.224  -0.002 -20.103  0.00  0.00    +0.000 NA
ATOM     10  N   UNL     1     -52.198   1.757 -18.500  0.00  0.00    +0.000 NA
ENDROOT
BRANCH   1  14
ATOM     11  C   UNL     1     -48.510  -0.956 -23.371  0.00  0.00    +0.000 A 
ATOM     12  C   UNL     1     -48.398  -0.462 -22.068  0.00  0.00    +0.000 A 
ATOM     13  C   UNL     1     -49.471  -0.569 -21.178  0.00  0.00    +0.000 A 
ATOM     14  C   UNL     1     -50.670  -1.171 -21.586  0.00  0.00    +0.000 A 
ATOM     15  C   UNL     1     -50.783  -1.669 -22.888  0.00  0.00    +0.000 A 
ATOM     16  C   UNL     1     -49.710  -1.562 -23.778  0.00  0.00    +0.000 A 
BRANCH  11  18
ATOM     17  C   UNL     1     -47.447  -1.307 -25.577  0.00  0.00    +0.000 C 
ATOM     18  O   UNL     1     -47.421  -0.833 -24.237  0.00  0.00    +0.000 OA
ENDBRANCH  11  18
ENDBRANCH   1  14
BRANCH   5  19
ATOM     19  C   UNL     1     -53.281   4.023 -18.641  0.00  0.00    +0.000 A 
ATOM     20  C   UNL     1     -54.040   4.963 -19.344  0.00  0.00    +0.000 A 
ATOM     21  C   UNL     1     -54.332   6.215 -18.785  0.00  0.00    +0.000 A 
ATOM     22  C   UNL     1     -53.861   6.541 -17.502  0.00  0.00    +0.000 A 
ATOM     23  C   UNL     1     -53.090   5.592 -16.782  0.00  0.00    +0.000 A 
ATOM     24  C   UNL     1     -52.813   4.346 -17.366  0.00  0.00    +0.000 A 
BRANCH  23  26
ATOM     25  C   UNL     1     -51.831   4.976 -14.736  0.00  0.00    +0.000 C 
ATOM     26  O   UNL     1     -52.607   5.888 -15.502  0.00  0.00    +0.000 OA
ENDBRANCH  23  26
BRANCH  22  28
ATOM     27  C   UNL     1     -53.800   8.310 -15.726  0.00  0.00    +0.000 C 
ATOM     28  O   UNL     1     -54.188   7.811 -16.998  0.00  0.00    +0.000 OA
ENDBRANCH  22  28
BRANCH  21  30
ATOM     29  C   UNL     1     -55.608   6.912 -20.791  0.00  0.00    +0.000 C 
ATOM     30  O   UNL     1     -55.092   7.156 -19.490  0.00  0.00    +0.000 OA
ENDBRANCH  21  30
ENDBRANCH   5  19
TORSDOF 6
