REMARK  Name = ZINC000253420118 PubChem-124883398
REMARK  7 active torsions:
REMARK  status: ('A' for Active; 'I' for Inactive)
REMARK    1  A    between atoms: C_2  and  C_16
REMARK    2  A    between atoms: C_2  and  N_22
REMARK    3  A    between atoms: C_3  and  C_4
REMARK    4  A    between atoms: C_4  and  C_5
REMARK    5  A    between atoms: C_5  and  C_6
REMARK    6  A    between atoms: C_5  and  N_23
REMARK    7  A    between atoms: C_16  and  N_24
REMARK                            x       y       z     vdW  Elec       q    Type
REMARK                         _______ _______ _______ _____ _____    ______ ____
ROOT
ATOM      1  C   UNL     1     -51.254   0.138 -20.624  0.00  0.00    +0.000 C 
ENDROOT
BRANCH   1   2
ATOM      2  C   UNL     1     -50.304  -0.339 -21.696  0.00  0.00    +0.000 A 
ATOM      3  C   UNL     1     -48.927  -0.073 -21.631  0.00  0.00    +0.000 A 
ATOM      4  C   UNL     1     -48.077  -0.519 -22.645  0.00  0.00    +0.000 A 
ATOM      5  C   UNL     1     -48.591  -1.227 -23.736  0.00  0.00    +0.000 A 
ATOM      6  C   UNL     1     -49.971  -1.487 -23.811  0.00  0.00    +0.000 A 
ATOM      7  C   UNL     1     -50.818  -1.038 -22.793  0.00  0.00    +0.000 A 
ATOM      8 CL   UNL     1     -47.484  -1.771 -24.985  0.00  0.00    +0.000 Cl
ATOM      9 CL   UNL     1     -50.667  -2.371 -25.160  0.00  0.00    +0.000 Cl
ENDBRANCH   1   2
BRANCH   1  14
ATOM     10  C   UNL     1     -49.801  -0.447 -18.750  0.00  0.00    +0.000 C 
ATOM     11  C   UNL     1     -49.711  -1.306 -17.486  0.00  0.00    +0.000 C 
ATOM     12  C   UNL     1     -51.286  -2.752 -18.222  0.00  0.00    +0.000 C 
ATOM     13  C   UNL     1     -51.481  -1.990 -19.535  0.00  0.00    +0.000 C 
ATOM     14  N   UNL     1     -51.144  -0.577 -19.338  0.00  0.00    +0.000 NA
ATOM     15  O   UNL     1     -49.942  -2.655 -17.814  0.00  0.00    +0.000 OA
ENDBRANCH   1  14
BRANCH   1  16
ATOM     16  C   UNL     1     -51.195   1.655 -20.445  0.00  0.00    +0.000 C 
BRANCH  16  17
ATOM     17  C   UNL     1     -52.379   2.139 -19.681  0.00  0.00    +0.000 C 
ATOM     18  N   UNL     1     -52.310   2.229 -18.257  0.00  0.00    +0.000 NA
ATOM     19  O   UNL     1     -53.435   2.447 -20.296  0.00  0.00    +0.000 OA
BRANCH  18  21
ATOM     20  C   UNL     1     -54.475   1.493 -17.434  0.00  0.00    +0.000 C 
ATOM     21  C   UNL     1     -53.448   2.616 -17.433  0.00  0.00    +0.000 C 
BRANCH  21  22
ATOM     22  C   UNL     1     -52.982   2.908 -16.002  0.00  0.00    +0.000 C 
ATOM     23  C   UNL     1     -51.892   3.986 -15.979  0.00  0.00    +0.000 C 
BRANCH  22  28
ATOM     24  C   UNL     1     -53.690   3.115 -13.726  0.00  0.00    +0.000 C 
ATOM     25  C   UNL     1     -54.748   3.688 -12.770  0.00  0.00    +0.000 C 
ATOM     26  C   UNL     1     -55.697   4.985 -14.351  0.00  0.00    +0.000 C 
ATOM     27  C   UNL     1     -54.653   4.577 -15.403  0.00  0.00    +0.000 C 
ATOM     28  N   UNL     1     -54.120   3.232 -15.126  0.00  0.00    +0.000 NA
ATOM     29  O   UNL     1     -55.953   3.932 -13.453  0.00  0.00    +0.000 OA
ENDBRANCH  22  28
ENDBRANCH  21  22
ENDBRANCH  18  21
ENDBRANCH  16  17
ENDBRANCH   1  16
TORSDOF 7
