REMARK  Name = ZINC000096181850 ZINC96181850 PubChem-97457680
REMARK  3 active torsions:
REMARK  status: ('A' for Active; 'I' for Inactive)
REMARK    1  A    between atoms: C_5  and  N_21
REMARK    2  A    between atoms: C_7  and  C_8
REMARK    3  A    between atoms: C_12  and  C_13
REMARK                            x       y       z     vdW  Elec       q    Type
REMARK                         _______ _______ _______ _____ _____    ______ ____
ROOT
ATOM      1  C   UNL     1     -51.880   0.402 -20.620  0.00  0.00    +0.000 C 
ATOM      2  C   UNL     1     -52.538  -0.934 -20.275  0.00  0.00    +0.000 C 
ATOM      3  C   UNL     1     -52.212  -1.367 -18.853  0.00  0.00    +0.000 C 
ATOM      4  C   UNL     1     -50.737  -1.338 -18.611  0.00  0.00    +0.000 C 
ATOM      5  C   UNL     1     -50.350   0.349 -20.472  0.00  0.00    +0.000 C 
ATOM      6  C   UNL     1     -48.554  -0.130 -18.787  0.00  0.00    +0.000 C 
ATOM      7  N   UNL     1     -49.909  -0.362 -19.265  0.00  0.00    +0.000 N 
ATOM      8  O   UNL     1     -50.236  -2.154 -17.792  0.00  0.00    +0.000 OA
ENDROOT
BRANCH   5   9
ATOM      9  C   UNL     1     -49.697  -0.212 -21.700  0.00  0.00    +0.000 A 
ATOM     10  C   UNL     1     -49.914  -1.540 -22.099  0.00  0.00    +0.000 A 
ATOM     11  C   UNL     1     -49.295  -2.039 -23.247  0.00  0.00    +0.000 A 
ATOM     12  C   UNL     1     -48.449  -1.218 -23.996  0.00  0.00    +0.000 A 
ATOM     13  C   UNL     1     -48.217   0.101 -23.592  0.00  0.00    +0.000 A 
ATOM     14  C   UNL     1     -48.840   0.602 -22.447  0.00  0.00    +0.000 A 
ATOM     15  F   UNL     1     -47.852  -1.702 -25.109  0.00  0.00    +0.000 F 
ENDBRANCH   5   9
BRANCH   1  16
ATOM     16  C   UNL     1     -52.492   1.539 -19.861  0.00  0.00    +0.000 C 
ATOM     17  N   UNL     1     -52.026   1.863 -18.545  0.00  0.00    +0.000 NA
ATOM     18  O   UNL     1     -53.437   2.183 -20.388  0.00  0.00    +0.000 OA
BRANCH  17  23
ATOM     19  C   UNL     1     -51.853   4.366 -14.296  0.00  0.00    +0.000 C 
ATOM     20  C   UNL     1     -52.502   4.082 -15.604  0.00  0.00    +0.000 A 
ATOM     21  C   UNL     1     -53.651   4.780 -15.981  0.00  0.00    +0.000 A 
ATOM     22  C   UNL     1     -54.244   4.498 -17.214  0.00  0.00    +0.000 A 
ATOM     23  C   UNL     1     -52.578   2.864 -17.684  0.00  0.00    +0.000 A 
ATOM     24  C   UNL     1     -51.962   3.116 -16.455  0.00  0.00    +0.000 A 
ATOM     25  N   UNL     1     -53.703   3.554 -18.031  0.00  0.00    +0.000 NA
ENDBRANCH  17  23
ENDBRANCH   1  16
TORSDOF 3
