REMARK  Name = ZINC000005348225 PubChem-7643528
REMARK  7 active torsions:
REMARK  status: ('A' for Active; 'I' for Inactive)
REMARK    1  A    between atoms: C_5  and  C_8
REMARK    2  A    between atoms: C_8  and  C_9
REMARK    3  A    between atoms: C_8  and  C_15
REMARK    4  A    between atoms: C_9  and  C_10
REMARK    5  A    between atoms: C_11  and  C_12
REMARK    6  A    between atoms: C_11  and  N_24
REMARK    7  A    between atoms: C_12  and  N_25
REMARK                            x       y       z     vdW  Elec       q    Type
REMARK                         _______ _______ _______ _____ _____    ______ ____
ROOT
ATOM      1  C   UNL     1     -50.942  -0.060 -20.567  0.00  0.00    +0.000 C 
ENDROOT
BRANCH   1   2
ATOM      2  C   UNL     1     -50.487  -1.033 -19.467  0.00  0.00    +0.000 C 
ATOM      3  C   UNL     1     -51.268  -0.824 -18.162  0.00  0.00    +0.000 C 
ATOM      4  C   UNL     1     -51.293  -2.098 -17.312  0.00  0.00    +0.000 C 
ATOM      5  C   UNL     1     -50.151  -3.451 -18.807  0.00  0.00    +0.000 C 
ATOM      6  C   UNL     1     -50.618  -2.490 -19.918  0.00  0.00    +0.000 C 
ATOM      7  C   UNL     1     -48.747  -3.907 -19.149  0.00  0.00    +0.000 C 
ATOM      8  C   UNL     1     -51.048  -4.678 -18.795  0.00  0.00    +0.000 C 
ATOM      9  O   UNL     1     -50.118  -2.852 -17.517  0.00  0.00    +0.000 OA
ENDBRANCH   1   2
BRANCH   1  14
ATOM     10  C   UNL     1     -48.145  -0.911 -25.562  0.00  0.00    +0.000 C 
ATOM     11  C   UNL     1     -48.856  -0.690 -24.276  0.00  0.00    +0.000 A 
ATOM     12  C   UNL     1     -48.131  -0.388 -23.120  0.00  0.00    +0.000 A 
ATOM     13  C   UNL     1     -48.800  -0.181 -21.910  0.00  0.00    +0.000 A 
ATOM     14  C   UNL     1     -50.199  -0.278 -21.852  0.00  0.00    +0.000 A 
ATOM     15  C   UNL     1     -50.920  -0.579 -23.014  0.00  0.00    +0.000 A 
ATOM     16  C   UNL     1     -50.250  -0.785 -24.223  0.00  0.00    +0.000 A 
ENDBRANCH   1  14
BRANCH   1  17
ATOM     17  C   UNL     1     -50.790   1.398 -20.137  0.00  0.00    +0.000 C 
BRANCH  17  18
ATOM     18  C   UNL     1     -52.085   1.941 -19.637  0.00  0.00    +0.000 C 
ATOM     19  O   UNL     1     -53.073   2.031 -20.416  0.00  0.00    +0.000 OA
ATOM     20  N   UNL     1     -52.190   2.367 -18.279  0.00  0.00    +0.000 NA
BRANCH  20  21
ATOM     21  C   UNL     1     -53.428   2.898 -17.732  0.00  0.00    +0.000 C 
BRANCH  21  22
ATOM     22  C   UNL     1     -53.236   3.252 -16.267  0.00  0.00    +0.000 C 
BRANCH  22  25
ATOM     23  C   UNL     1     -53.163   5.571 -15.985  0.00  0.00    +0.000 C 
ATOM     24  C   UNL     1     -51.629   4.214 -14.881  0.00  0.00    +0.000 C 
ATOM     25  N   UNL     1     -52.336   4.387 -16.137  0.00  0.00    +0.000 NA
ENDBRANCH  22  25
ENDBRANCH  21  22
ENDBRANCH  20  21
ENDBRANCH  17  18
ENDBRANCH   1  17
TORSDOF 7
