REMARK  Name = ZINC000072242160 ZINC72242160 PubChem-95740374
REMARK  4 active torsions:
REMARK  status: ('A' for Active; 'I' for Inactive)
REMARK    1  A    between atoms: C_6  and  C_7
REMARK    2  A    between atoms: C_7  and  N_21
REMARK    3  A    between atoms: C_8  and  C_9
REMARK    4  A    between atoms: C_13  and  C_14
REMARK                            x       y       z     vdW  Elec       q    Type
REMARK                         _______ _______ _______ _____ _____    ______ ____
ROOT
ATOM      1  C   UNL     1     -51.688   0.024 -19.947  0.00  0.00    +0.000 C 
ATOM      2  C   UNL     1     -51.989  -1.014 -18.858  0.00  0.00    +0.000 C 
ATOM      3  C   UNL     1     -50.647  -1.447 -18.424  0.00  0.00    +0.000 C 
ATOM      4  C   UNL     1     -48.203  -0.843 -18.723  0.00  0.00    +0.000 C 
ATOM      5  C   UNL     1     -50.158   0.191 -20.024  0.00  0.00    +0.000 C 
ATOM      6  N   UNL     1     -49.604  -0.789 -19.109  0.00  0.00    +0.000 N 
ATOM      7  O   UNL     1     -50.446  -2.305 -17.524  0.00  0.00    +0.000 OA
ENDROOT
BRANCH   5   8
ATOM      8  C   UNL     1     -49.663  -0.032 -21.420  0.00  0.00    +0.000 A 
ATOM      9  C   UNL     1     -49.835  -1.266 -22.066  0.00  0.00    +0.000 A 
ATOM     10  C   UNL     1     -49.365  -1.449 -23.369  0.00  0.00    +0.000 A 
ATOM     11  C   UNL     1     -48.721  -0.400 -24.033  0.00  0.00    +0.000 A 
ATOM     12  C   UNL     1     -48.548   0.831 -23.393  0.00  0.00    +0.000 A 
ATOM     13  C   UNL     1     -49.018   1.014 -22.090  0.00  0.00    +0.000 A 
ATOM     14  F   UNL     1     -48.265  -0.577 -25.296  0.00  0.00    +0.000 F 
ENDBRANCH   5   8
BRANCH   1  15
ATOM     15  C   UNL     1     -52.344   1.327 -19.631  0.00  0.00    +0.000 C 
ATOM     16  N   UNL     1     -52.007   2.029 -18.433  0.00  0.00    +0.000 NA
ATOM     17  O   UNL     1     -53.195   1.799 -20.430  0.00  0.00    +0.000 OA
BRANCH  16  18
ATOM     18  C   UNL     1     -52.618   3.302 -18.087  0.00  0.00    +0.000 C 
BRANCH  18  24
ATOM     19  C   UNL     1     -52.768   3.451 -13.093  0.00  0.00    +0.000 C 
ATOM     20  C   UNL     1     -52.127   3.849 -14.374  0.00  0.00    +0.000 A 
ATOM     21  C   UNL     1     -50.986   4.658 -14.364  0.00  0.00    +0.000 A 
ATOM     22  C   UNL     1     -50.381   5.028 -15.569  0.00  0.00    +0.000 A 
ATOM     23  C   UNL     1     -50.917   4.592 -16.784  0.00  0.00    +0.000 A 
ATOM     24  C   UNL     1     -52.063   3.789 -16.795  0.00  0.00    +0.000 A 
ATOM     25  C   UNL     1     -52.663   3.412 -15.589  0.00  0.00    +0.000 A 
ENDBRANCH  18  24
ENDBRANCH  16  18
ENDBRANCH   1  15
TORSDOF 4
