REMARK  Name = ZINC000006870764 PubChem-92318821
REMARK  6 active torsions:
REMARK  status: ('A' for Active; 'I' for Inactive)
REMARK    1  A    between atoms: C_2  and  O_22
REMARK    2  A    between atoms: C_3  and  O_27
REMARK    3  A    between atoms: C_5  and  C_8
REMARK    4  A    between atoms: C_10  and  C_13
REMARK    5  A    between atoms: C_14  and  O_26
REMARK    6  A    between atoms: C_15  and  O_25
REMARK                            x       y       z     vdW  Elec       q    Type
REMARK                         _______ _______ _______ _____ _____    ______ ____
ROOT
ATOM      1  C   UNL     1     -52.931   2.692 -19.279  0.00  0.00    +0.000 C 
ATOM      2  C   UNL     1     -51.756   0.448 -18.945  0.00  0.00    +0.000 C 
ATOM      3  C   UNL     1     -51.593  -1.271 -20.674  0.00  0.00    +0.000 C 
ATOM      4  C   UNL     1     -51.394  -2.340 -19.589  0.00  0.00    +0.000 C 
ATOM      5  C   UNL     1     -50.773  -1.748 -18.364  0.00  0.00    +0.000 C 
ATOM      6  O   UNL     1     -53.261   2.430 -20.468  0.00  0.00    +0.000 OA
ATOM      7  O   UNL     1     -50.066  -2.460 -17.606  0.00  0.00    +0.000 OA
ATOM      8  N   UNL     1     -52.185   1.741 -18.504  0.00  0.00    +0.000 NA
ATOM      9  N   UNL     1     -52.063   0.010 -20.133  0.00  0.00    +0.000 NA
ATOM     10  N   UNL     1     -51.006  -0.377 -18.049  0.00  0.00    +0.000 NA
ENDROOT
BRANCH   1  14
ATOM     11  C   UNL     1     -54.038   6.458 -17.537  0.00  0.00    +0.000 A 
ATOM     12  C   UNL     1     -53.303   5.515 -16.777  0.00  0.00    +0.000 A 
ATOM     13  C   UNL     1     -52.950   4.288 -17.364  0.00  0.00    +0.000 A 
ATOM     14  C   UNL     1     -53.311   3.984 -18.682  0.00  0.00    +0.000 A 
ATOM     15  C   UNL     1     -54.036   4.922 -19.422  0.00  0.00    +0.000 A 
ATOM     16  C   UNL     1     -54.394   6.145 -18.854  0.00  0.00    +0.000 A 
BRANCH  11  18
ATOM     17  C   UNL     1     -54.170   8.198 -15.742  0.00  0.00    +0.000 C 
ATOM     18  O   UNL     1     -54.441   7.711 -17.049  0.00  0.00    +0.000 OA
ENDBRANCH  11  18
BRANCH  12  20
ATOM     19  C   UNL     1     -52.192   4.885 -14.652  0.00  0.00    +0.000 C 
ATOM     20  O   UNL     1     -52.930   5.795 -15.458  0.00  0.00    +0.000 OA
ENDBRANCH  12  20
ENDBRANCH   1  14
BRANCH   3  21
ATOM     21  C   UNL     1     -50.363  -1.081 -21.519  0.00  0.00    +0.000 A 
ATOM     22  C   UNL     1     -50.404  -1.390 -22.894  0.00  0.00    +0.000 A 
ATOM     23  C   UNL     1     -49.239  -1.196 -23.682  0.00  0.00    +0.000 A 
ATOM     24  C   UNL     1     -48.073  -0.698 -23.078  0.00  0.00    +0.000 A 
ATOM     25  C   UNL     1     -48.047  -0.392 -21.720  0.00  0.00    +0.000 A 
ATOM     26  C   UNL     1     -49.187  -0.582 -20.945  0.00  0.00    +0.000 A 
BRANCH  23  28
ATOM     27  C   UNL     1     -48.108  -1.322 -25.886  0.00  0.00    +0.000 C 
ATOM     28  O   UNL     1     -49.244  -1.496 -25.049  0.00  0.00    +0.000 OA
ENDBRANCH  23  28
BRANCH  22  30
ATOM     29  C   UNL     1     -51.833  -2.234 -24.775  0.00  0.00    +0.000 C 
ATOM     30  O   UNL     1     -51.614  -1.881 -23.417  0.00  0.00    +0.000 OA
ENDBRANCH  22  30
ENDBRANCH   3  21
TORSDOF 6
