REMARK  Name = ZINC000239637078 PubChem-124725638
REMARK  7 active torsions:
REMARK  status: ('A' for Active; 'I' for Inactive)
REMARK    1  A    between atoms: C_2  and  C_3
REMARK    2  A    between atoms: C_2  and  C_17
REMARK    3  A    between atoms: C_3  and  N_21
REMARK    4  A    between atoms: C_4  and  C_5
REMARK    5  A    between atoms: C_8  and  N_22
REMARK    6  A    between atoms: C_12  and  C_13
REMARK    7  A    between atoms: C_17  and  N_25
REMARK                            x       y       z     vdW  Elec       q    Type
REMARK                         _______ _______ _______ _____ _____    ______ ____
ROOT
ATOM      1  C   UNL     1     -51.571   0.250 -20.262  0.00  0.00    +0.000 C 
ATOM      2  C   UNL     1     -51.848  -0.999 -19.422  0.00  0.00    +0.000 C 
ATOM      3  C   UNL     1     -50.558  -1.254 -18.757  0.00  0.00    +0.000 C 
ATOM      4  C   UNL     1     -50.071   0.573 -20.136  0.00  0.00    +0.000 C 
ATOM      5  N   UNL     1     -49.539  -0.339 -19.129  0.00  0.00    +0.000 N 
ATOM      6  O   UNL     1     -50.374  -2.200 -17.948  0.00  0.00    +0.000 OA
ENDROOT
BRANCH   4   7
ATOM      7  C   UNL     1     -49.393   0.361 -21.454  0.00  0.00    +0.000 A 
ATOM      8  C   UNL     1     -48.790   1.341 -22.218  0.00  0.00    +0.000 A 
ATOM      9  C   UNL     1     -48.215  -1.498 -24.286  0.00  0.00    +0.000 C 
ATOM     10  C   UNL     1     -49.261  -0.832 -22.139  0.00  0.00    +0.000 A 
ATOM     11  N   UNL     1     -48.303   0.750 -23.326  0.00  0.00    +0.000 NA
ATOM     12  N   UNL     1     -48.592  -0.539 -23.265  0.00  0.00    +0.000 N 
ENDBRANCH   4   7
BRANCH   5  13
ATOM     13  C   UNL     1     -48.206  -0.264 -18.507  0.00  0.00    +0.000 C 
ATOM     14  C   UNL     1     -47.403   0.916 -19.031  0.00  0.00    +0.000 C 
ATOM     15  C   UNL     1     -47.431  -1.536 -18.802  0.00  0.00    +0.000 C 
ATOM     16  C   UNL     1     -48.341  -0.101 -17.005  0.00  0.00    +0.000 C 
ENDBRANCH   5  13
BRANCH   1  17
ATOM     17  C   UNL     1     -52.397   1.390 -19.762  0.00  0.00    +0.000 C 
ATOM     18  N   UNL     1     -52.092   2.004 -18.508  0.00  0.00    +0.000 NA
ATOM     19  O   UNL     1     -53.384   1.780 -20.442  0.00  0.00    +0.000 OA
BRANCH  18  20
ATOM     20  C   UNL     1     -52.908   3.069 -17.942  0.00  0.00    +0.000 C 
BRANCH  20  22
ATOM     21  C   UNL     1     -54.395   1.502 -16.677  0.00  0.00    +0.000 C 
ATOM     22  C   UNL     1     -53.443   2.678 -16.566  0.00  0.00    +0.000 C 
BRANCH  22  23
ATOM     23  C   UNL     1     -52.321   2.346 -15.588  0.00  0.00    +0.000 C 
BRANCH  23  27
ATOM     24  C   UNL     1     -51.610   3.990 -13.873  0.00  0.00    +0.000 A 
ATOM     25  C   UNL     1     -50.834   5.136 -13.845  0.00  0.00    +0.000 A 
ATOM     26  C   UNL     1     -50.420   5.322 -15.155  0.00  0.00    +0.000 A 
ATOM     27  N   UNL     1     -51.642   3.552 -15.140  0.00  0.00    +0.000 N 
ATOM     28  N   UNL     1     -50.924   4.337 -15.921  0.00  0.00    +0.000 NA
ENDBRANCH  23  27
ENDBRANCH  22  23
ENDBRANCH  20  22
ENDBRANCH  18  20
ENDBRANCH   1  17
TORSDOF 7
