REMARK  Name = ZINC000096182866 ZINC96182866 PubChem-97458158
REMARK  2 active torsions:
REMARK  status: ('A' for Active; 'I' for Inactive)
REMARK    1  A    between atoms: C_5  and  C_6
REMARK    2  A    between atoms: C_7  and  C_11
REMARK                            x       y       z     vdW  Elec       q    Type
REMARK                         _______ _______ _______ _____ _____    ______ ____
ROOT
ATOM      1  C   UNL     1     -51.801   0.330 -20.562  0.00  0.00    +0.000 C 
ATOM      2  C   UNL     1     -50.262   0.278 -20.480  0.00  0.00    +0.000 C 
ATOM      3  C   UNL     1     -50.709  -1.377 -18.639  0.00  0.00    +0.000 C 
ATOM      4  C   UNL     1     -52.174  -1.260 -18.915  0.00  0.00    +0.000 C 
ATOM      5  C   UNL     1     -48.398  -0.461 -18.954  0.00  0.00    +0.000 C 
ATOM      6  N   UNL     1     -49.797  -0.533 -19.351  0.00  0.00    +0.000 N 
ATOM      7  O   UNL     1     -50.300  -2.161 -17.743  0.00  0.00    +0.000 OA
ATOM      8  O   UNL     1     -52.412  -0.915 -20.264  0.00  0.00    +0.000 OA
ENDROOT
BRANCH   1  13
ATOM      9  C   UNL     1     -52.212   4.537 -14.426  0.00  0.00    +0.000 C 
ATOM     10  C   UNL     1     -52.641   4.042 -15.763  0.00  0.00    +0.000 A 
ATOM     11  C   UNL     1     -53.802   4.463 -16.404  0.00  0.00    +0.000 A 
ATOM     12  C   UNL     1     -52.479   2.816 -17.633  0.00  0.00    +0.000 A 
ATOM     13  C   UNL     1     -52.406   1.487 -19.819  0.00  0.00    +0.000 C 
ATOM     14  C   UNL     1     -54.790   5.449 -15.886  0.00  0.00    +0.000 C 
ATOM     15  S   UNL     1     -53.921   3.661 -17.875  0.00  0.00    +0.000 S 
ATOM     16  N   UNL     1     -51.910   3.123 -16.448  0.00  0.00    +0.000 NA
ATOM     17  N   UNL     1     -51.917   1.837 -18.516  0.00  0.00    +0.000 NA
ATOM     18  O   UNL     1     -53.348   2.127 -20.352  0.00  0.00    +0.000 OA
ENDBRANCH   1  13
BRANCH   2  19
ATOM     19  C   UNL     1     -49.679  -0.221 -21.768  0.00  0.00    +0.000 A 
ATOM     20  C   UNL     1     -48.819   0.610 -22.495  0.00  0.00    +0.000 A 
ATOM     21  C   UNL     1     -48.252   0.161 -23.692  0.00  0.00    +0.000 A 
ATOM     22  C   UNL     1     -48.542  -1.123 -24.165  0.00  0.00    +0.000 A 
ATOM     23  C   UNL     1     -49.398  -1.958 -23.440  0.00  0.00    +0.000 A 
ATOM     24  C   UNL     1     -49.964  -1.510 -22.243  0.00  0.00    +0.000 A 
ATOM     25  F   UNL     1     -47.995  -1.557 -25.324  0.00  0.00    +0.000 F 
ENDBRANCH   2  19
TORSDOF 2
