REMARK  Name = ZINC000072335159 ZINC72335159 PubChem-95797838
REMARK  4 active torsions:
REMARK  status: ('A' for Active; 'I' for Inactive)
REMARK    1  A    between atoms: C_3  and  C_6
REMARK    2  A    between atoms: C_8  and  C_10
REMARK    3  A    between atoms: C_11  and  C_12
REMARK    4  A    between atoms: C_11  and  N_22
REMARK                            x       y       z     vdW  Elec       q    Type
REMARK                         _______ _______ _______ _____ _____    ______ ____
ROOT
ATOM      1  C   UNL     1     -48.793   0.296 -20.287  0.00  0.00    +0.000 C 
ATOM      2  C   UNL     1     -49.853   1.261 -19.745  0.00  0.00    +0.000 C 
ATOM      3  C   UNL     1     -51.253   0.646 -19.755  0.00  0.00    +0.000 C 
ATOM      4  C   UNL     1     -52.664  -1.064 -18.879  0.00  0.00    +0.000 C 
ATOM      5  N   UNL     1     -51.353  -0.433 -18.764  0.00  0.00    +0.000 NA
ATOM      6  N   UNL     1     -48.639  -0.895 -19.446  0.00  0.00    +0.000 NA
ATOM      7  S   UNL     1     -50.178  -1.651 -19.160  0.00  0.00    +0.000 S 
ATOM      8  O   UNL     1     -50.047  -2.606 -18.008  0.00  0.00    +0.000 OA
ATOM      9  O   UNL     1     -50.603  -2.413 -20.386  0.00  0.00    +0.000 OA
ENDROOT
BRANCH   1  12
ATOM     10  C   UNL     1     -49.625   2.265 -22.685  0.00  0.00    +0.000 C 
ATOM     11  C   UNL     1     -49.267   0.824 -22.792  0.00  0.00    +0.000 A 
ATOM     12  C   UNL     1     -48.942  -0.035 -21.752  0.00  0.00    +0.000 A 
ATOM     13  C   UNL     1     -48.604  -1.231 -22.362  0.00  0.00    +0.000 A 
ATOM     14  C   UNL     1     -48.537  -2.074 -24.695  0.00  0.00    +0.000 C 
ATOM     15  N   UNL     1     -48.776  -1.060 -23.686  0.00  0.00    +0.000 N 
ATOM     16  N   UNL     1     -49.166   0.172 -23.963  0.00  0.00    +0.000 NA
ENDBRANCH   1  12
BRANCH   3  17
ATOM     17  C   UNL     1     -52.243   1.735 -19.473  0.00  0.00    +0.000 C 
ATOM     18  N   UNL     1     -52.221   2.417 -18.217  0.00  0.00    +0.000 NA
ATOM     19  O   UNL     1     -53.095   2.038 -20.350  0.00  0.00    +0.000 OA
BRANCH  18  20
ATOM     20  C   UNL     1     -53.165   3.476 -17.899  0.00  0.00    +0.000 C 
BRANCH  20  21
ATOM     21  C   UNL     1     -52.899   3.990 -16.529  0.00  0.00    +0.000 A 
ATOM     22  C   UNL     1     -53.524   3.399 -15.426  0.00  0.00    +0.000 A 
ATOM     23  C   UNL     1     -53.256   3.866 -14.136  0.00  0.00    +0.000 A 
ATOM     24  C   UNL     1     -52.358   4.922 -13.947  0.00  0.00    +0.000 A 
ATOM     25  C   UNL     1     -51.727   5.508 -15.048  0.00  0.00    +0.000 A 
ATOM     26  C   UNL     1     -51.994   5.041 -16.339  0.00  0.00    +0.000 A 
ATOM     27  F   UNL     1     -52.099   5.375 -12.697  0.00  0.00    +0.000 F 
ENDBRANCH  20  21
ENDBRANCH  18  20
ENDBRANCH   3  17
TORSDOF 4
