REMARK  Name = ZINC000002155366 PubChem-1804311
REMARK  7 active torsions:
REMARK  status: ('A' for Active; 'I' for Inactive)
REMARK    1  A    between atoms: C_2  and  C_3
REMARK    2  A    between atoms: C_3  and  C_4
REMARK    3  A    between atoms: C_4  and  CA_5
REMARK    4  A    between atoms: CA_5  and  C_6
REMARK    5  A    between atoms: CA_5  and  N_32
REMARK    6  A    between atoms: C_7  and  C_8
REMARK    7  A    between atoms: C_8  and  C_9
REMARK                            x       y       z     vdW  Elec       q    Type
REMARK                         _______ _______ _______ _____ _____    ______ ____
ROOT
ATOM      1  C   UNL     1     -49.659  -0.324 -18.862  0.00  0.00    +0.000 A 
ATOM      2  C   UNL     1     -49.300   0.390 -20.018  0.00  0.00    +0.000 A 
ATOM      3  C   UNL     1     -49.045  -0.315 -21.205  0.00  0.00    +0.000 A 
ATOM      4  C   UNL     1     -49.162  -1.738 -21.192  0.00  0.00    +0.000 A 
ATOM      5  C   UNL     1     -48.918  -2.484 -22.366  0.00  0.00    +0.000 A 
ATOM      6  C   UNL     1     -48.563  -1.787 -23.520  0.00  0.00    +0.000 A 
ATOM      7  C   UNL     1     -48.443  -0.418 -23.525  0.00  0.00    +0.000 A 
ATOM      8  C   UNL     1     -48.680   0.354 -22.394  0.00  0.00    +0.000 A 
ATOM      9  C   UNL     1     -48.083  -0.069 -24.802  0.00  0.00    +0.000 A 
ATOM     10  C   UNL     1     -48.032  -1.260 -25.504  0.00  0.00    +0.000 A 
ATOM     11  C   UNL     1     -47.665  -1.342 -26.952  0.00  0.00    +0.000 C 
ATOM     12  C   UNL     1     -47.840   0.028 -27.626  0.00  0.00    +0.000 C 
ATOM     13  C   UNL     1     -47.219   1.152 -26.781  0.00  0.00    +0.000 C 
ATOM     14  C   UNL     1     -47.920   1.283 -25.421  0.00  0.00    +0.000 C 
ATOM     15  C   UNL     1     -49.041  -3.970 -22.384  0.00  0.00    +0.000 C 
ATOM     16  C   UNL     1     -49.752  -1.725 -18.931  0.00  0.00    +0.000 A 
ATOM     17  C   UNL     1     -49.188   1.885 -19.981  0.00  0.00    +0.000 C 
ATOM     18  O   UNL     1     -48.310  -2.280 -24.715  0.00  0.00    +0.000 OA
ATOM     19  O   UNL     1     -49.504  -2.364 -20.070  0.00  0.00    +0.000 OA
ATOM     20  O   UNL     1     -50.072  -2.393 -17.912  0.00  0.00    +0.000 OA
ENDROOT
BRANCH   1  21
ATOM     21  C   UNL     1     -49.972   0.390 -17.578  0.00  0.00    +0.000 C 
BRANCH  21  22
ATOM     22  C   UNL     1     -51.434   0.658 -17.474  0.00  0.00    +0.000 C 
ATOM     23  O   UNL     1     -52.160  -0.101 -16.778  0.00  0.00    +0.000 OA
ATOM     24  N   UNL     1     -52.005   1.754 -18.190  0.00  0.00    +0.000 NA
BRANCH  24  25
ATOM     25  CA  UNL     1     -53.433   2.032 -18.168  0.00  0.00    +0.000 C 
BRANCH  25  26
ATOM     26  C   UNL     1     -54.008   1.822 -19.529  0.00  0.00    +0.000 C 
ATOM     27  OXT UNL     1     -53.587   2.487 -20.512  0.00  0.00    +0.000 OA
ATOM     28  O   UNL     1     -55.010   0.879 -19.713  0.00  0.00    +0.000 OA
ENDBRANCH  25  26
BRANCH  25  29
ATOM     29  C   UNL     1     -53.688   3.458 -17.698  0.00  0.00    +0.000 C 
BRANCH  29  30
ATOM     30  C   UNL     1     -53.564   3.573 -16.184  0.00  0.00    +0.000 C 
BRANCH  30  32
ATOM     31  C   UNL     1     -51.556   5.051 -16.076  0.00  0.00    +0.000 C 
ATOM     32  C   UNL     1     -52.112   3.679 -15.745  0.00  0.00    +0.000 C 
ENDBRANCH  30  32
ENDBRANCH  29  30
ENDBRANCH  25  29
ENDBRANCH  24  25
ENDBRANCH  21  22
ENDBRANCH   1  21
TORSDOF 7
