REMARK  Name = ZINC000096181260 ZINC96181260 PubChem-97457132
REMARK  4 active torsions:
REMARK  status: ('A' for Active; 'I' for Inactive)
REMARK    1  A    between atoms: C_5  and  C_8
REMARK    2  A    between atoms: C_9  and  C_13
REMARK    3  A    between atoms: C_14  and  C_15
REMARK    4  A    between atoms: C_14  and  N_24
REMARK                            x       y       z     vdW  Elec       q    Type
REMARK                         _______ _______ _______ _____ _____    ______ ____
ROOT
ATOM      1  C   UNL     1     -50.157   0.206 -20.028  0.00  0.00    +0.000 C 
ATOM      2  C   UNL     1     -51.686   0.033 -19.954  0.00  0.00    +0.000 C 
ATOM      3  C   UNL     1     -51.986  -1.013 -18.872  0.00  0.00    +0.000 C 
ATOM      4  C   UNL     1     -50.643  -1.427 -18.422  0.00  0.00    +0.000 C 
ATOM      5  C   UNL     1     -48.207  -0.778 -18.683  0.00  0.00    +0.000 C 
ATOM      6  O   UNL     1     -50.441  -2.280 -17.517  0.00  0.00    +0.000 OA
ATOM      7  N   UNL     1     -49.601  -0.756 -19.096  0.00  0.00    +0.000 N 
ENDROOT
BRANCH   1  12
ATOM      8  C   UNL     1     -48.234  -0.653 -25.416  0.00  0.00    +0.000 C 
ATOM      9  C   UNL     1     -48.729  -0.441 -24.031  0.00  0.00    +0.000 A 
ATOM     10  C   UNL     1     -48.605   0.815 -23.430  0.00  0.00    +0.000 A 
ATOM     11  C   UNL     1     -49.070   1.016 -22.127  0.00  0.00    +0.000 A 
ATOM     12  C   UNL     1     -49.659  -0.037 -21.420  0.00  0.00    +0.000 A 
ATOM     13  C   UNL     1     -49.785  -1.296 -22.028  0.00  0.00    +0.000 A 
ATOM     14  C   UNL     1     -49.319  -1.496 -23.331  0.00  0.00    +0.000 A 
ENDBRANCH   1  12
BRANCH   2  15
ATOM     15  C   UNL     1     -52.345   1.332 -19.628  0.00  0.00    +0.000 C 
ATOM     16  O   UNL     1     -53.184   1.818 -20.433  0.00  0.00    +0.000 OA
ATOM     17  N   UNL     1     -52.022   2.019 -18.417  0.00  0.00    +0.000 NA
BRANCH  17  18
ATOM     18  C   UNL     1     -52.630   3.292 -18.066  0.00  0.00    +0.000 C 
BRANCH  18  19
ATOM     19  C   UNL     1     -52.080   3.767 -16.765  0.00  0.00    +0.000 A 
ATOM     20  C   UNL     1     -52.741   3.436 -15.577  0.00  0.00    +0.000 A 
ATOM     21  C   UNL     1     -52.225   3.853 -14.347  0.00  0.00    +0.000 A 
ATOM     22  C   UNL     1     -51.044   4.599 -14.300  0.00  0.00    +0.000 A 
ATOM     23  C   UNL     1     -50.377   4.926 -15.484  0.00  0.00    +0.000 A 
ATOM     24  C   UNL     1     -50.890   4.510 -16.717  0.00  0.00    +0.000 A 
ATOM     25  F   UNL     1     -50.228   4.829 -17.857  0.00  0.00    +0.000 F 
ENDBRANCH  18  19
ENDBRANCH  17  18
ENDBRANCH   2  15
TORSDOF 4
