REMARK  Name = ZINC000096181546
REMARK  2 active torsions:
REMARK  status: ('A' for Active; 'I' for Inactive)
REMARK    1  A    between atoms: C_5  and  C_6
REMARK    2  A    between atoms: C_10  and  C_11
REMARK                            x       y       z     vdW  Elec       q    Type
REMARK                         _______ _______ _______ _____ _____    ______ ____
ROOT
ATOM      1  C   UNL     1     -51.778   0.353 -20.492  0.00  0.00    +0.000 C 
ATOM      2  C   UNL     1     -52.154  -1.256 -18.869  0.00  0.00    +0.000 C 
ATOM      3  C   UNL     1     -50.689  -1.420 -18.629  0.00  0.00    +0.000 C 
ATOM      4  C   UNL     1     -48.378  -0.489 -18.899  0.00  0.00    +0.000 C 
ATOM      5  C   UNL     1     -50.239   0.284 -20.417  0.00  0.00    +0.000 C 
ATOM      6  N   UNL     1     -49.780  -0.534 -19.290  0.00  0.00    +0.000 N 
ATOM      7  O   UNL     1     -52.404  -0.888 -20.209  0.00  0.00    +0.000 OA
ATOM      8  O   UNL     1     -50.273  -2.311 -17.842  0.00  0.00    +0.000 OA
ENDROOT
BRANCH   1  13
ATOM      9  C   UNL     1     -52.596   5.041 -14.735  0.00  0.00    +0.000 C 
ATOM     10  C   UNL     1     -52.678   4.286 -16.012  0.00  0.00    +0.000 A 
ATOM     11  C   UNL     1     -51.877   3.215 -16.361  0.00  0.00    +0.000 A 
ATOM     12  C   UNL     1     -52.371   2.908 -17.615  0.00  0.00    +0.000 A 
ATOM     13  C   UNL     1     -52.368   1.508 -19.735  0.00  0.00    +0.000 C 
ATOM     14  N   UNL     1     -51.873   1.845 -18.433  0.00  0.00    +0.000 NA
ATOM     15  N   UNL     1     -53.376   3.732 -17.966  0.00  0.00    +0.000 NA
ATOM     16  O   UNL     1     -53.321   2.152 -20.249  0.00  0.00    +0.000 OA
ATOM     17  O   UNL     1     -53.532   4.551 -16.971  0.00  0.00    +0.000 OA
ENDBRANCH   1  13
BRANCH   5  18
ATOM     18  C   UNL     1     -49.668  -0.219 -21.709  0.00  0.00    +0.000 A 
ATOM     19  C   UNL     1     -49.929  -1.522 -22.160  0.00  0.00    +0.000 A 
ATOM     20  C   UNL     1     -49.379  -1.971 -23.364  0.00  0.00    +0.000 A 
ATOM     21  C   UNL     1     -48.567  -1.122 -24.121  0.00  0.00    +0.000 A 
ATOM     22  C   UNL     1     -47.982  -1.599 -25.401  0.00  0.00    +0.000 C 
ATOM     23  C   UNL     1     -48.303   0.176 -23.674  0.00  0.00    +0.000 A 
ATOM     24  C   UNL     1     -48.853   0.626 -22.469  0.00  0.00    +0.000 A 
ENDBRANCH   5  18
TORSDOF 2
