REMARK  Name = ZINC000072242200 ZINC72242200 PubChem-95740414
REMARK  2 active torsions:
REMARK  status: ('A' for Active; 'I' for Inactive)
REMARK    1  A    between atoms: C_7  and  C_8
REMARK    2  A    between atoms: C_11  and  C_12
REMARK                            x       y       z     vdW  Elec       q    Type
REMARK                         _______ _______ _______ _____ _____    ______ ____
ROOT
ATOM      1  C   UNL     1     -51.669  -0.046 -19.986  0.00  0.00    +0.000 C 
ATOM      2  C   UNL     1     -51.975  -1.097 -18.910  0.00  0.00    +0.000 C 
ATOM      3  C   UNL     1     -50.635  -1.564 -18.506  0.00  0.00    +0.000 C 
ATOM      4  C   UNL     1     -50.138   0.099 -20.077  0.00  0.00    +0.000 C 
ATOM      5  C   UNL     1     -48.185  -1.000 -18.828  0.00  0.00    +0.000 C 
ATOM      6  N   UNL     1     -49.589  -0.912 -19.193  0.00  0.00    +0.000 N 
ATOM      7  O   UNL     1     -50.438  -2.444 -17.627  0.00  0.00    +0.000 OA
ENDROOT
BRANCH   1  14
ATOM      8  C   UNL     1     -51.921   5.361 -14.971  0.00  0.00    +0.000 C 
ATOM      9  C   UNL     1     -52.441   4.870 -16.273  0.00  0.00    +0.000 A 
ATOM     10  C   UNL     1     -53.376   5.627 -16.981  0.00  0.00    +0.000 A 
ATOM     11  C   UNL     1     -53.853   5.149 -18.202  0.00  0.00    +0.000 A 
ATOM     12  C   UNL     1     -53.393   3.929 -18.698  0.00  0.00    +0.000 A 
ATOM     13  C   UNL     1     -52.454   3.193 -17.963  0.00  0.00    +0.000 A 
ATOM     14  C   UNL     1     -52.303   1.261 -19.646  0.00  0.00    +0.000 C 
ATOM     15  N   UNL     1     -52.005   3.682 -16.774  0.00  0.00    +0.000 NA
ATOM     16  N   UNL     1     -51.949   1.934 -18.428  0.00  0.00    +0.000 NA
ATOM     17  O   UNL     1     -53.145   1.756 -20.442  0.00  0.00    +0.000 OA
ENDBRANCH   1  14
BRANCH   4  18
ATOM     18  C   UNL     1     -49.662  -0.096 -21.484  0.00  0.00    +0.000 A 
ATOM     19  C   UNL     1     -49.010   0.956 -22.135  0.00  0.00    +0.000 A 
ATOM     20  C   UNL     1     -48.558   0.798 -23.449  0.00  0.00    +0.000 A 
ATOM     21  C   UNL     1     -48.758  -0.414 -24.116  0.00  0.00    +0.000 A 
ATOM     22  C   UNL     1     -49.409  -1.469 -23.471  0.00  0.00    +0.000 A 
ATOM     23  C   UNL     1     -49.861  -1.312 -22.157  0.00  0.00    +0.000 A 
ATOM     24  F   UNL     1     -48.320  -0.566 -25.389  0.00  0.00    +0.000 F 
ENDBRANCH   4  18
TORSDOF 2
