REMARK  Name = ZINC000035340400 PubChem-2311905
REMARK  8 active torsions:
REMARK  status: ('A' for Active; 'I' for Inactive)
REMARK    1  A    between atoms: C_2  and  O_24
REMARK    2  A    between atoms: C_3  and  O_27
REMARK    3  A    between atoms: C_5  and  C_8
REMARK    4  A    between atoms: C_9  and  C_10
REMARK    5  A    between atoms: C_11  and  C_12
REMARK    6  A    between atoms: C_11  and  N_28
REMARK    7  A    between atoms: C_12  and  C_13
REMARK    8  A    between atoms: C_12  and  N_29
REMARK                            x       y       z     vdW  Elec       q    Type
REMARK                         _______ _______ _______ _____ _____    ______ ____
ROOT
ATOM      1  C   UNL     1     -50.911   1.809 -19.572  0.00  0.00    +0.000 C 
ENDROOT
BRANCH   1   4
ATOM      2  C   UNL     1     -53.310   2.470 -19.091  0.00  0.00    +0.000 C 
ATOM      3  O   UNL     1     -53.622   2.317 -20.302  0.00  0.00    +0.000 OA
ATOM      4  N   UNL     1     -51.968   2.225 -18.661  0.00  0.00    +0.000 NA
BRANCH   2   6
ATOM      5  C   UNL     1     -54.214   3.406 -16.934  0.00  0.00    +0.000 C 
ATOM      6  C   UNL     1     -54.366   2.816 -18.127  0.00  0.00    +0.000 C 
BRANCH   5  10
ATOM      7  C   UNL     1     -50.725   5.201 -15.204  0.00  0.00    +0.000 A 
ATOM      8  C   UNL     1     -51.670   4.525 -14.391  0.00  0.00    +0.000 A 
ATOM      9  C   UNL     1     -52.789   3.937 -14.990  0.00  0.00    +0.000 A 
ATOM     10  C   UNL     1     -52.983   3.986 -16.372  0.00  0.00    +0.000 A 
ATOM     11  C   UNL     1     -52.066   4.681 -17.167  0.00  0.00    +0.000 A 
ATOM     12  C   UNL     1     -50.943   5.274 -16.590  0.00  0.00    +0.000 A 
BRANCH   7  14
ATOM     13  C   UNL     1     -48.612   6.482 -15.407  0.00  0.00    +0.000 C 
ATOM     14  O   UNL     1     -49.590   5.793 -14.639  0.00  0.00    +0.000 OA
ENDBRANCH   7  14
BRANCH   8  16
ATOM     15  C   UNL     1     -50.496   4.944 -12.220  0.00  0.00    +0.000 C 
ATOM     16  O   UNL     1     -51.557   4.407 -12.997  0.00  0.00    +0.000 OA
ENDBRANCH   8  16
ENDBRANCH   5  10
ENDBRANCH   2   6
ENDBRANCH   1   4
BRANCH   1  17
ATOM     17  C   UNL     1     -51.105   0.351 -19.983  0.00  0.00    +0.000 C 
BRANCH  17  18
ATOM     18  C   UNL     1     -50.233  -0.028 -21.155  0.00  0.00    +0.000 A 
ATOM     19  C   UNL     1     -50.842  -0.504 -22.322  0.00  0.00    +0.000 A 
ATOM     20  C   UNL     1     -50.066  -0.849 -23.432  0.00  0.00    +0.000 A 
ATOM     21  C   UNL     1     -48.676  -0.714 -23.383  0.00  0.00    +0.000 A 
ATOM     22  C   UNL     1     -48.062  -0.230 -22.226  0.00  0.00    +0.000 A 
ATOM     23  C   UNL     1     -48.837   0.115 -21.115  0.00  0.00    +0.000 A 
ATOM     24  F   UNL     1     -47.925  -1.049 -24.460  0.00  0.00    +0.000 F 
ENDBRANCH  17  18
BRANCH  17  30
ATOM     25  C   UNL     1     -49.654  -0.656 -18.300  0.00  0.00    +0.000 C 
ATOM     26  C   UNL     1     -49.608  -1.702 -17.185  0.00  0.00    +0.000 C 
ATOM     27  C   UNL     1     -51.351  -2.857 -18.047  0.00  0.00    +0.000 C 
ATOM     28  C   UNL     1     -51.511  -1.886 -19.219  0.00  0.00    +0.000 C 
ATOM     29  O   UNL     1     -49.993  -2.956 -17.695  0.00  0.00    +0.000 OA
ATOM     30  N   UNL     1     -51.023  -0.559 -18.827  0.00  0.00    +0.000 NA
ENDBRANCH  17  30
ENDBRANCH   1  17
TORSDOF 8
