REMARK  Name = ZINC000072241411 ZINC72241411 PubChem-95739681
REMARK  2 active torsions:
REMARK  status: ('A' for Active; 'I' for Inactive)
REMARK    1  A    between atoms: C_5  and  C_6
REMARK    2  A    between atoms: C_7  and  C_11
REMARK                            x       y       z     vdW  Elec       q    Type
REMARK                         _______ _______ _______ _____ _____    ______ ____
ROOT
ATOM      1  C   UNL     1     -51.780   0.335 -20.506  0.00  0.00    +0.000 C 
ATOM      2  C   UNL     1     -50.242   0.255 -20.430  0.00  0.00    +0.000 C 
ATOM      3  C   UNL     1     -50.716  -1.443 -18.634  0.00  0.00    +0.000 C 
ATOM      4  C   UNL     1     -52.178  -1.286 -18.898  0.00  0.00    +0.000 C 
ATOM      5  C   UNL     1     -48.386  -0.575 -18.941  0.00  0.00    +0.000 C 
ATOM      6  N   UNL     1     -49.788  -0.601 -19.329  0.00  0.00    +0.000 N 
ATOM      7  O   UNL     1     -50.320  -2.264 -17.764  0.00  0.00    +0.000 OA
ATOM      8  O   UNL     1     -52.414  -0.904 -20.237  0.00  0.00    +0.000 OA
ENDROOT
BRANCH   1  13
ATOM      9  C   UNL     1     -52.563   4.985 -14.713  0.00  0.00    +0.000 C 
ATOM     10  C   UNL     1     -52.650   4.240 -15.996  0.00  0.00    +0.000 A 
ATOM     11  C   UNL     1     -51.861   3.163 -16.352  0.00  0.00    +0.000 A 
ATOM     12  C   UNL     1     -52.354   2.871 -17.609  0.00  0.00    +0.000 A 
ATOM     13  C   UNL     1     -52.364   1.487 -19.739  0.00  0.00    +0.000 C 
ATOM     14  N   UNL     1     -53.348   3.709 -17.957  0.00  0.00    +0.000 NA
ATOM     15  N   UNL     1     -51.865   1.810 -18.434  0.00  0.00    +0.000 NA
ATOM     16  O   UNL     1     -53.498   4.522 -16.956  0.00  0.00    +0.000 OA
ATOM     17  O   UNL     1     -53.313   2.140 -20.247  0.00  0.00    +0.000 OA
ENDBRANCH   1  13
BRANCH   2  18
ATOM     18  C   UNL     1     -49.675  -0.213 -21.736  0.00  0.00    +0.000 A 
ATOM     19  C   UNL     1     -49.946  -1.499 -22.226  0.00  0.00    +0.000 A 
ATOM     20  C   UNL     1     -49.399  -1.916 -23.443  0.00  0.00    +0.000 A 
ATOM     21  C   UNL     1     -48.579  -1.051 -24.173  0.00  0.00    +0.000 A 
ATOM     22  C   UNL     1     -48.304   0.230 -23.686  0.00  0.00    +0.000 A 
ATOM     23  C   UNL     1     -48.851   0.648 -22.469  0.00  0.00    +0.000 A 
ATOM     24 CL   UNL     1     -47.894  -1.573 -25.697  0.00  0.00    +0.000 Cl
ENDBRANCH   2  18
TORSDOF 2
