REMARK  Name = ZINC000096181382 ZINC96181382 PubChem-97457252
REMARK  4 active torsions:
REMARK  status: ('A' for Active; 'I' for Inactive)
REMARK    1  A    between atoms: C_5  and  C_8
REMARK    2  A    between atoms: C_9  and  C_13
REMARK    3  A    between atoms: C_14  and  C_15
REMARK    4  A    between atoms: C_14  and  N_24
REMARK                            x       y       z     vdW  Elec       q    Type
REMARK                         _______ _______ _______ _____ _____    ______ ____
ROOT
ATOM      1  C   UNL     1     -50.156   0.206 -20.029  0.00  0.00    +0.000 C 
ATOM      2  C   UNL     1     -51.685   0.034 -19.953  0.00  0.00    +0.000 C 
ATOM      3  C   UNL     1     -51.984  -1.012 -18.872  0.00  0.00    +0.000 C 
ATOM      4  C   UNL     1     -50.641  -1.427 -18.422  0.00  0.00    +0.000 C 
ATOM      5  C   UNL     1     -48.205  -0.778 -18.684  0.00  0.00    +0.000 C 
ATOM      6  O   UNL     1     -50.439  -2.280 -17.517  0.00  0.00    +0.000 OA
ATOM      7  N   UNL     1     -49.599  -0.756 -19.097  0.00  0.00    +0.000 N 
ENDROOT
BRANCH   1  12
ATOM      8  C   UNL     1     -48.237  -0.658 -25.418  0.00  0.00    +0.000 C 
ATOM      9  C   UNL     1     -48.730  -0.444 -24.033  0.00  0.00    +0.000 A 
ATOM     10  C   UNL     1     -48.604   0.812 -23.432  0.00  0.00    +0.000 A 
ATOM     11  C   UNL     1     -49.069   1.014 -22.129  0.00  0.00    +0.000 A 
ATOM     12  C   UNL     1     -49.659  -0.039 -21.421  0.00  0.00    +0.000 A 
ATOM     13  C   UNL     1     -49.786  -1.298 -22.028  0.00  0.00    +0.000 A 
ATOM     14  C   UNL     1     -49.322  -1.499 -23.331  0.00  0.00    +0.000 A 
ENDBRANCH   1  12
BRANCH   2  15
ATOM     15  C   UNL     1     -52.343   1.333 -19.628  0.00  0.00    +0.000 C 
ATOM     16  O   UNL     1     -53.182   1.819 -20.433  0.00  0.00    +0.000 OA
ATOM     17  N   UNL     1     -52.021   2.019 -18.416  0.00  0.00    +0.000 NA
BRANCH  17  18
ATOM     18  C   UNL     1     -52.633   3.289 -18.062  0.00  0.00    +0.000 C 
BRANCH  18  19
ATOM     19  C   UNL     1     -52.093   3.759 -16.758  0.00  0.00    +0.000 A 
ATOM     20  C   UNL     1     -50.939   4.550 -16.722  0.00  0.00    +0.000 A 
ATOM     21  C   UNL     1     -50.418   4.971 -15.495  0.00  0.00    +0.000 A 
ATOM     22  C   UNL     1     -51.046   4.598 -14.302  0.00  0.00    +0.000 A 
ATOM     23  C   UNL     1     -52.195   3.801 -14.337  0.00  0.00    +0.000 A 
ATOM     24  C   UNL     1     -52.717   3.380 -15.564  0.00  0.00    +0.000 A 
ENDBRANCH  18  19
ENDBRANCH  17  18
ENDBRANCH   2  15
TORSDOF 4
