REMARK  Name = ZINC000493967026
REMARK  7 active torsions:
REMARK  status: ('A' for Active; 'I' for Inactive)
REMARK    1  A    between atoms: C_2  and  O_25
REMARK    2  A    between atoms: C_5  and  C_6
REMARK    3  A    between atoms: C_7  and  C_8
REMARK    4  A    between atoms: C_9  and  C_10
REMARK    5  A    between atoms: C_9  and  N_28
REMARK    6  A    between atoms: C_12  and  C_13
REMARK    7  A    between atoms: C_17  and  C_18
REMARK                            x       y       z     vdW  Elec       q    Type
REMARK                         _______ _______ _______ _____ _____    ______ ____
ROOT
ATOM      1  C   UNL     1     -52.342   1.411 -19.560  0.00  0.00    +0.000 C 
ATOM      2  O   UNL     1     -53.170   1.911 -20.367  0.00  0.00    +0.000 OA
ATOM      3  N   UNL     1     -52.071   2.050 -18.310  0.00  0.00    +0.000 NA
ENDROOT
BRANCH   1   5
ATOM      4  C   UNL     1     -50.116   0.357 -19.946  0.00  0.00    +0.000 C 
ATOM      5  C   UNL     1     -51.642   0.144 -19.923  0.00  0.00    +0.000 C 
ATOM      6  C   UNL     1     -51.945  -0.957 -18.898  0.00  0.00    +0.000 C 
ATOM      7  C   UNL     1     -50.605  -1.359 -18.428  0.00  0.00    +0.000 C 
ATOM      8  C   UNL     1     -48.180  -0.639 -18.590  0.00  0.00    +0.000 C 
ATOM      9  O   UNL     1     -50.406  -2.246 -17.557  0.00  0.00    +0.000 OA
ATOM     10  N   UNL     1     -49.561  -0.633 -19.042  0.00  0.00    +0.000 N 
BRANCH   4  14
ATOM     11  C   UNL     1     -48.558  -0.075 -23.938  0.00  0.00    +0.000 A 
ATOM     12  C   UNL     1     -48.486   1.153 -23.272  0.00  0.00    +0.000 A 
ATOM     13  C   UNL     1     -48.992   1.284 -21.975  0.00  0.00    +0.000 A 
ATOM     14  C   UNL     1     -49.574   0.187 -21.333  0.00  0.00    +0.000 A 
ATOM     15  C   UNL     1     -49.651  -1.046 -21.998  0.00  0.00    +0.000 A 
ATOM     16  C   UNL     1     -49.145  -1.176 -23.294  0.00  0.00    +0.000 A 
BRANCH  11  18
ATOM     17  C   UNL     1     -48.074  -1.379 -25.983  0.00  0.00    +0.000 C 
ATOM     18  O   UNL     1     -48.042  -0.172 -25.233  0.00  0.00    +0.000 OA
ENDBRANCH  11  18
ENDBRANCH   4  14
ENDBRANCH   1   5
BRANCH   3  19
ATOM     19  C   UNL     1     -52.723   3.288 -17.920  0.00  0.00    +0.000 C 
BRANCH  19  20
ATOM     20  C   UNL     1     -52.226   3.710 -16.583  0.00  0.00    +0.000 A 
ATOM     21  C   UNL     1     -52.050   3.878 -14.464  0.00  0.00    +0.000 A 
ATOM     22  C   UNL     1     -51.008   4.547 -15.075  0.00  0.00    +0.000 A 
ATOM     23  N   UNL     1     -52.819   3.343 -15.430  0.00  0.00    +0.000 NA
ATOM     24  N   UNL     1     -51.108   4.440 -16.413  0.00  0.00    +0.000 NA
BRANCH  22  25
ATOM     25  C   UNL     1     -49.925   5.272 -14.388  0.00  0.00    +0.000 A 
ATOM     26  C   UNL     1     -48.920   5.906 -15.131  0.00  0.00    +0.000 A 
ATOM     27  C   UNL     1     -47.890   6.595 -14.483  0.00  0.00    +0.000 A 
ATOM     28  C   UNL     1     -47.860   6.654 -13.087  0.00  0.00    +0.000 A 
ATOM     29  C   UNL     1     -48.858   6.025 -12.339  0.00  0.00    +0.000 A 
ATOM     30  C   UNL     1     -49.888   5.336 -12.987  0.00  0.00    +0.000 A 
BRANCH  29  31
ATOM     31  C   UNL     1     -48.827   6.085 -10.905  0.00  0.00    +0.000 C 
ATOM     32  N   UNL     1     -48.802   6.134  -9.749  0.00  0.00    +0.000 NA
ENDBRANCH  29  31
ENDBRANCH  22  25
ENDBRANCH  19  20
ENDBRANCH   3  19
TORSDOF 7
