REMARK  Name = ZINC000020924353 ZINC20924353 PubChem-92705274
REMARK  5 active torsions:
REMARK  status: ('A' for Active; 'I' for Inactive)
REMARK    1  A    between atoms: C_5  and  C_8
REMARK    2  A    between atoms: C_12  and  C_13
REMARK    3  A    between atoms: C_15  and  O_26
REMARK    4  A    between atoms: C_16  and  O_25
REMARK    5  A    between atoms: C_17  and  O_24
REMARK                            x       y       z     vdW  Elec       q    Type
REMARK                         _______ _______ _______ _____ _____    ______ ____
ROOT
ATOM      1  C   UNL     1     -51.914  -1.352 -20.692  0.00  0.00    +0.000 C 
ATOM      2  C   UNL     1     -51.611  -2.390 -19.602  0.00  0.00    +0.000 C 
ATOM      3  C   UNL     1     -50.829  -1.780 -18.484  0.00  0.00    +0.000 C 
ATOM      4  C   UNL     1     -51.825   0.422 -19.010  0.00  0.00    +0.000 C 
ATOM      5  C   UNL     1     -52.964   2.693 -19.282  0.00  0.00    +0.000 C 
ATOM      6  O   UNL     1     -50.043  -2.486 -17.801  0.00  0.00    +0.000 OA
ATOM      7  O   UNL     1     -53.443   2.405 -20.413  0.00  0.00    +0.000 OA
ATOM      8  N   UNL     1     -50.999  -0.398 -18.179  0.00  0.00    +0.000 NA
ATOM      9  N   UNL     1     -52.270  -0.036 -20.145  0.00  0.00    +0.000 NA
ATOM     10  N   UNL     1     -52.162   1.742 -18.567  0.00  0.00    +0.000 NA
ENDROOT
BRANCH   1  15
ATOM     11  C   UNL     1     -47.612  -0.977 -24.543  0.00  0.00    +0.000 C 
ATOM     12  C   UNL     1     -48.712  -1.068 -23.549  0.00  0.00    +0.000 A 
ATOM     13  C   UNL     1     -48.534  -0.556 -22.260  0.00  0.00    +0.000 A 
ATOM     14  C   UNL     1     -49.569  -0.642 -21.325  0.00  0.00    +0.000 A 
ATOM     15  C   UNL     1     -50.790  -1.239 -21.677  0.00  0.00    +0.000 A 
ATOM     16  C   UNL     1     -50.961  -1.752 -22.967  0.00  0.00    +0.000 A 
ATOM     17  C   UNL     1     -49.925  -1.666 -23.902  0.00  0.00    +0.000 A 
ENDBRANCH   1  15
BRANCH   5  18
ATOM     18  C   UNL     1     -53.230   4.017 -18.692  0.00  0.00    +0.000 A 
ATOM     19  C   UNL     1     -54.008   4.955 -19.374  0.00  0.00    +0.000 A 
ATOM     20  C   UNL     1     -54.265   6.217 -18.820  0.00  0.00    +0.000 A 
ATOM     21  C   UNL     1     -53.738   6.553 -17.561  0.00  0.00    +0.000 A 
ATOM     22  C   UNL     1     -52.947   5.606 -16.861  0.00  0.00    +0.000 A 
ATOM     23  C   UNL     1     -52.706   4.350 -17.441  0.00  0.00    +0.000 A 
BRANCH  22  25
ATOM     24  C   UNL     1     -51.610   5.002 -14.862  0.00  0.00    +0.000 C 
ATOM     25  O   UNL     1     -52.409   5.912 -15.606  0.00  0.00    +0.000 OA
ENDBRANCH  22  25
BRANCH  21  27
ATOM     26  C   UNL     1     -53.588   8.343 -15.812  0.00  0.00    +0.000 C 
ATOM     27  O   UNL     1     -54.032   7.833 -17.061  0.00  0.00    +0.000 OA
ENDBRANCH  21  27
BRANCH  20  29
ATOM     28  C   UNL     1     -55.616   6.901 -20.780  0.00  0.00    +0.000 C 
ATOM     29  O   UNL     1     -55.045   7.156 -19.504  0.00  0.00    +0.000 OA
ENDBRANCH  20  29
ENDBRANCH   5  18
TORSDOF 5
