REMARK  Name = ZINC000222958584 PubChem-100170263
REMARK  7 active torsions:
REMARK  status: ('A' for Active; 'I' for Inactive)
REMARK    1  A    between atoms: C_2  and  C_3
REMARK    2  A    between atoms: C_3  and  C_4
REMARK    3  A    between atoms: C_3  and  O_24
REMARK    4  A    between atoms: C_5  and  N_25
REMARK    5  A    between atoms: C_9  and  C_11
REMARK    6  A    between atoms: C_11  and  O_23
REMARK    7  A    between atoms: C_13  and  O_24
REMARK                            x       y       z     vdW  Elec       q    Type
REMARK                         _______ _______ _______ _____ _____    ______ ____
ROOT
ATOM      1  C   UNL     1     -52.145   2.221 -19.665  0.00  0.00    +0.000 C 
ATOM      2  O   UNL     1     -53.144   2.207 -20.430  0.00  0.00    +0.000 OA
ATOM      3  N   UNL     1     -52.355   2.191 -18.249  0.00  0.00    +0.000 NA
ENDROOT
BRANCH   3   4
ATOM      4  C   UNL     1     -51.511   1.529 -17.303  0.00  0.00    +0.000 A 
ATOM      5  C   UNL     1     -51.269   2.112 -16.049  0.00  0.00    +0.000 A 
ATOM      6  C   UNL     1     -50.473   1.449 -15.113  0.00  0.00    +0.000 A 
ATOM      7  C   UNL     1     -49.939   0.192 -15.407  0.00  0.00    +0.000 A 
ATOM      8  C   UNL     1     -50.204  -0.417 -16.641  0.00  0.00    +0.000 A 
ATOM      9  C   UNL     1     -50.989   0.259 -17.583  0.00  0.00    +0.000 A 
ATOM     10 CL   UNL     1     -51.922   3.689 -15.639  0.00  0.00    +0.000 Cl
BRANCH   8  11
ATOM     11  C   UNL     1     -49.670  -1.757 -16.932  0.00  0.00    +0.000 C 
ATOM     12  O   UNL     1     -50.018  -2.361 -17.984  0.00  0.00    +0.000 OA
BRANCH  11  14
ATOM     13  C   UNL     1     -48.201  -3.628 -16.298  0.00  0.00    +0.000 C 
ATOM     14  O   UNL     1     -48.777  -2.357 -16.040  0.00  0.00    +0.000 OA
ENDBRANCH  11  14
ENDBRANCH   8  11
ENDBRANCH   3   4
BRANCH   1  15
ATOM     15  C   UNL     1     -50.783   2.403 -20.263  0.00  0.00    +0.000 C 
BRANCH  15  17
ATOM     16  C   UNL     1     -48.830   3.937 -20.453  0.00  0.00    +0.000 C 
ATOM     17  C   UNL     1     -50.073   3.602 -19.653  0.00  0.00    +0.000 C 
ENDBRANCH  15  17
BRANCH  15  18
ATOM     18  O   UNL     1     -49.988   1.230 -20.127  0.00  0.00    +0.000 OA
BRANCH  18  19
ATOM     19  C   UNL     1     -49.603   0.445 -21.218  0.00  0.00    +0.000 A 
ATOM     20  C   UNL     1     -48.625  -0.549 -21.050  0.00  0.00    +0.000 A 
ATOM     21  C   UNL     1     -48.231  -1.335 -22.138  0.00  0.00    +0.000 A 
ATOM     22  C   UNL     1     -48.806  -1.135 -23.395  0.00  0.00    +0.000 A 
ATOM     23  C   UNL     1     -49.775  -0.145 -23.572  0.00  0.00    +0.000 A 
ATOM     24  C   UNL     1     -50.172   0.642 -22.488  0.00  0.00    +0.000 A 
ATOM     25  C   UNL     1     -48.380  -1.974 -24.545  0.00  0.00    +0.000 C 
ATOM     26  C   UNL     1     -47.955  -0.743 -19.736  0.00  0.00    +0.000 C 
ENDBRANCH  18  19
ENDBRANCH  15  18
ENDBRANCH   1  15
TORSDOF 7
