REMARK  Name = ZINC000002099315 CSCC[C@H](NC(=O)Cc1c(C)c2cc3c(C)coc3cc2oc1=O)C(O)=O MCULE-8114226211 MolPort-002-520-341 PubChem-1755356
REMARK  7 active torsions:
REMARK  status: ('A' for Active; 'I' for Inactive)
REMARK    1  A    between atoms: CG_2  and  CB_3
REMARK    2  A    between atoms: CG_2  and  SD_21
REMARK    3  A    between atoms: CB_3  and  CA_4
REMARK    4  A    between atoms: CA_4  and  C_20
REMARK    5  A    between atoms: CA_4  and  N_22
REMARK    6  A    between atoms: C_5  and  C_6
REMARK    7  A    between atoms: C_6  and  C_7
REMARK                            x       y       z     vdW  Elec       q    Type
REMARK                         _______ _______ _______ _____ _____    ______ ____
ROOT
ATOM      1  C   UNK A   0     -49.661  -0.353 -18.840  0.00  0.00    +0.000 A 
ATOM      2  C   UNK A   0     -49.303   0.388 -19.981  0.00  0.00    +0.000 A 
ATOM      3  C   UNK A   0     -49.189   1.881 -19.910  0.00  0.00    +0.000 C 
ATOM      4  C   UNK A   0     -49.049  -0.291 -21.183  0.00  0.00    +0.000 A 
ATOM      5  C   UNK A   0     -48.687   0.399 -22.361  0.00  0.00    +0.000 A 
ATOM      6  C   UNK A   0     -48.456  -0.357 -23.506  0.00  0.00    +0.000 A 
ATOM      7  C   UNK A   0     -48.568  -1.718 -23.518  0.00  0.00    +0.000 A 
ATOM      8  C   UNK A   0     -48.008  -1.176 -25.510  0.00  0.00    +0.000 A 
ATOM      9  C   UNK A   0     -48.096   0.005 -24.781  0.00  0.00    +0.000 A 
ATOM     10  C   UNK A   0     -47.848   1.381 -25.291  0.00  0.00    +0.000 C 
ATOM     11  C   UNK A   0     -48.922  -2.436 -22.380  0.00  0.00    +0.000 A 
ATOM     12  C   UNK A   0     -49.166  -1.713 -21.198  0.00  0.00    +0.000 A 
ATOM     13  C   UNK A   0     -49.755  -1.753 -18.942  0.00  0.00    +0.000 A 
ATOM     14  O   UNK A   0     -48.300  -2.191 -24.712  0.00  0.00    +0.000 OA
ATOM     15  O   UNK A   0     -49.507  -2.366 -20.095  0.00  0.00    +0.000 OA
ATOM     16  O   UNK A   0     -50.075  -2.444 -17.937  0.00  0.00    +0.000 OA
ENDROOT
BRANCH   1  17
ATOM     17  C   UNK A   0     -49.971   0.332 -17.540  0.00  0.00    +0.000 C 
BRANCH  17  18
ATOM     18  C   UNK A   0     -51.434   0.597 -17.427  0.00  0.00    +0.000 C 
ATOM     19  N   MET A   1     -52.012   1.690 -18.140  0.00  0.00    +0.000 NA
ATOM     20  O   UNK A   0     -52.153  -0.161 -16.723  0.00  0.00    +0.000 OA
BRANCH  19  21
ATOM     21  CA  MET A   1     -53.438   1.973 -18.096  0.00  0.00    +0.000 C 
BRANCH  21  22
ATOM     22  C   MET A   1     -54.032   1.754 -19.446  0.00  0.00    +0.000 C 
ATOM     23  O   MET A   1     -53.579   2.479 -20.542  0.00  0.00    +0.000 OA
ATOM     24  OXT MET A   1     -54.943   0.900 -19.596  0.00  0.00    +0.000 OA
ENDBRANCH  21  22
BRANCH  21  25
ATOM     25  CB  MET A   1     -53.681   3.407 -17.645  0.00  0.00    +0.000 C 
BRANCH  25  26
ATOM     26  CG  MET A   1     -53.507   3.546 -16.140  0.00  0.00    +0.000 C 
BRANCH  26  28
ATOM     27  CE  MET A   1     -51.870   5.608 -16.111  0.00  0.00    +0.000 C 
ATOM     28  SD  MET A   1     -51.764   3.842 -15.708  0.00  0.00    +0.000 S 
ENDBRANCH  26  28
ENDBRANCH  25  26
ENDBRANCH  21  25
ENDBRANCH  19  21
ENDBRANCH  17  18
ENDBRANCH   1  17
TORSDOF 7
