REMARK  Name = ZINC000223871494 PubChem-100324810
REMARK  5 active torsions:
REMARK  status: ('A' for Active; 'I' for Inactive)
REMARK    1  A    between atoms: C_9  and  C_10
REMARK    2  A    between atoms: C_11  and  C_13
REMARK    3  A    between atoms: C_11  and  N_22
REMARK    4  A    between atoms: C_16  and  S_29
REMARK    5  A    between atoms: N_21  and  S_30
REMARK                            x       y       z     vdW  Elec       q    Type
REMARK                         _______ _______ _______ _____ _____    ______ ____
ROOT
ATOM      1  C   UNL     1     -48.663  -0.959 -25.539  0.00  0.00    +0.000 C 
ATOM      2  C   UNL     1     -49.051  -1.094 -24.111  0.00  0.00    +0.000 A 
ATOM      3  C   UNL     1     -49.768  -0.071 -23.483  0.00  0.00    +0.000 A 
ATOM      4  C   UNL     1     -50.129  -0.195 -22.139  0.00  0.00    +0.000 A 
ATOM      5  C   UNL     1     -49.790  -1.355 -21.421  0.00  0.00    +0.000 A 
ATOM      6  C   UNL     1     -49.065  -2.374 -22.055  0.00  0.00    +0.000 A 
ATOM      7  C   UNL     1     -48.696  -2.242 -23.397  0.00  0.00    +0.000 A 
ATOM      8  C   UNL     1     -51.248  -0.562 -19.552  0.00  0.00    +0.000 C 
ATOM      9  C   UNL     1     -50.994   0.849 -20.080  0.00  0.00    +0.000 C 
ATOM     10  N   UNL     1     -50.215  -1.469 -20.050  0.00  0.00    +0.000 N 
ATOM     11  O   UNL     1     -50.832   0.832 -21.501  0.00  0.00    +0.000 OA
ENDROOT
BRANCH  10  15
ATOM     12  C   UNL     1     -47.742  -2.358 -18.888  0.00  0.00    +0.000 C 
ATOM     13  O   UNL     1     -50.070  -2.430 -17.582  0.00  0.00    +0.000 OA
ATOM     14  O   UNL     1     -49.794  -4.012 -19.429  0.00  0.00    +0.000 OA
ATOM     15  S   UNL     1     -49.500  -2.615 -18.960  0.00  0.00    +0.000 S 
ENDBRANCH  10  15
BRANCH   9  16
ATOM     16  C   UNL     1     -52.100   1.767 -19.674  0.00  0.00    +0.000 C 
ATOM     17  N   UNL     1     -52.224   2.148 -18.301  0.00  0.00    +0.000 NA
ATOM     18  O   UNL     1     -52.921   2.196 -20.530  0.00  0.00    +0.000 OA
BRANCH  17  19
ATOM     19  C   UNL     1     -53.296   3.006 -17.814  0.00  0.00    +0.000 C 
ATOM     20  C   UNL     1     -54.610   2.242 -17.780  0.00  0.00    +0.000 C 
BRANCH  19  21
ATOM     21  C   UNL     1     -52.956   3.534 -16.457  0.00  0.00    +0.000 A 
ATOM     22  C   UNL     1     -52.862   4.917 -16.266  0.00  0.00    +0.000 A 
ATOM     23  C   UNL     1     -52.540   5.432 -15.008  0.00  0.00    +0.000 A 
ATOM     24  C   UNL     1     -52.310   4.567 -13.932  0.00  0.00    +0.000 A 
ATOM     25  C   UNL     1     -52.398   3.184 -14.121  0.00  0.00    +0.000 A 
ATOM     26  C   UNL     1     -52.720   2.667 -15.379  0.00  0.00    +0.000 A 
BRANCH  24  30
ATOM     27  C   UNL     1     -50.129   5.372 -12.224  0.00  0.00    +0.000 C 
ATOM     28  O   UNL     1     -52.398   4.294 -11.281  0.00  0.00    +0.000 OA
ATOM     29  O   UNL     1     -52.532   6.564 -12.178  0.00  0.00    +0.000 OA
ATOM     30  S   UNL     1     -51.894   5.215 -12.356  0.00  0.00    +0.000 S 
ENDBRANCH  24  30
ENDBRANCH  19  21
ENDBRANCH  17  19
ENDBRANCH   9  16
TORSDOF 5
