MODEL 1
REMARK VINA RESULT:      -5.5      0.000      0.000
REMARK  Name = ZINC000615451238 MolPort-044-610-126
REMARK  6 active torsions:
REMARK  status: ('A' for Active; 'I' for Inactive)
REMARK    1  A    between atoms: C_2  and  C_3
REMARK    2  A    between atoms: C_4  and  C_5
REMARK    3  A    between atoms: C_5  and  N_22
REMARK    4  A    between atoms: C_6  and  C_7
REMARK    5  A    between atoms: C_10  and  N_23
REMARK    6  A    between atoms: C_13  and  C_14
REMARK                            x       y       z     vdW  Elec       q    Type
REMARK                         _______ _______ _______ _____ _____    ______ ____
ROOT
ATOM      1  C   UNL     1     -45.998  -6.843 -28.830  0.00  0.00    +0.000 C 
ATOM      2  C   UNL     1     -45.048  -6.048 -27.923  0.00  0.00    +0.000 C 
ATOM      3  C   UNL     1     -43.774  -6.783 -28.040  0.00  0.00    +0.000 C 
ATOM      4  C   UNL     1     -45.212  -8.037 -29.400  0.00  0.00    +0.000 C 
ATOM      5  N   UNL     1     -43.852  -7.899 -28.904  0.00  0.00    +0.000 N 
ATOM      6  O   UNL     1     -42.722  -6.456 -27.427  0.00  0.00    +0.000 OA
ENDROOT
BRANCH   4   7
ATOM      7  C   UNL     1     -45.823  -9.336 -28.964  0.00  0.00    +0.000 A 
ATOM      8  C   UNL     1     -46.149 -10.441 -29.726  0.00  0.00    +0.000 A 
ATOM      9  C   UNL     1     -45.969 -10.605 -31.199  0.00  0.00    +0.000 C 
ATOM     10  C   UNL     1     -47.148 -12.688 -29.286  0.00  0.00    +0.000 C 
ATOM     11  C   UNL     1     -46.176  -9.660 -27.665  0.00  0.00    +0.000 A 
ATOM     12  N   UNL     1     -46.670 -11.368 -28.907  0.00  0.00    +0.000 N 
ATOM     13  N   UNL     1     -46.690 -10.910 -27.666  0.00  0.00    +0.000 NA
ENDBRANCH   4   7
BRANCH   1  14
ATOM     14  C   UNL     1     -46.504  -5.980 -29.937  0.00  0.00    +0.000 C 
ATOM     15  N   UNL     1     -45.627  -5.575 -30.991  0.00  0.00    +0.000 NA
ATOM     16  O   UNL     1     -47.710  -5.616 -29.936  0.00  0.00    +0.000 OA
BRANCH  15  17
ATOM     17  C   UNL     1     -46.078  -4.755 -32.102  0.00  0.00    +0.000 C 
BRANCH  17  19
ATOM     18  C   UNL     1     -44.693  -1.507 -31.977  0.00  0.00    +0.000 A 
ATOM     19  C   UNL     1     -45.678  -3.342 -31.869  0.00  0.00    +0.000 A 
ATOM     20  N   UNL     1     -44.734  -2.706 -32.591  0.00  0.00    +0.000 NA
ATOM     21  N   UNL     1     -46.171  -2.584 -30.873  0.00  0.00    +0.000 NA
ATOM     22  N   UNL     1     -45.553  -1.419 -30.947  0.00  0.00    +0.000 NA
BRANCH  18  24
ATOM     23  C   UNL     1     -42.655  -0.926 -33.236  0.00  0.00    +0.000 C 
ATOM     24  C   UNL     1     -43.800  -0.390 -32.398  0.00  0.00    +0.000 C 
ENDBRANCH  18  24
ENDBRANCH  17  19
ENDBRANCH  15  17
ENDBRANCH   1  14
BRANCH   5  25
ATOM     25  C   UNL     1     -42.760  -8.834 -29.166  0.00  0.00    +0.000 C 
ATOM     26  C   UNL     1     -41.633  -8.122 -29.894  0.00  0.00    +0.000 C 
ATOM     27  C   UNL     1     -42.577  -9.015 -30.664  0.00  0.00    +0.000 C 
ENDBRANCH   5  25
TORSDOF 6
ENDMDL
MODEL 2
REMARK VINA RESULT:      -5.5      6.949     11.162
REMARK  Name = ZINC000615451238 MolPort-044-610-126
REMARK  6 active torsions:
REMARK  status: ('A' for Active; 'I' for Inactive)
REMARK    1  A    between atoms: C_2  and  C_3
REMARK    2  A    between atoms: C_4  and  C_5
REMARK    3  A    between atoms: C_5  and  N_22
REMARK    4  A    between atoms: C_6  and  C_7
REMARK    5  A    between atoms: C_10  and  N_23
REMARK    6  A    between atoms: C_13  and  C_14
REMARK                            x       y       z     vdW  Elec       q    Type
REMARK                         _______ _______ _______ _____ _____    ______ ____
ROOT
ATOM      1  C   UNL     1     -45.001 -12.858 -25.280  0.00  0.00    +0.000 C 
ATOM      2  C   UNL     1     -45.883 -11.603 -25.228  0.00  0.00    +0.000 C 
ATOM      3  C   UNL     1     -46.133 -11.304 -26.651  0.00  0.00    +0.000 C 
ATOM      4  C   UNL     1     -44.756 -13.197 -26.762  0.00  0.00    +0.000 C 
ATOM      5  N   UNL     1     -45.520 -12.226 -27.530  0.00  0.00    +0.000 N 
ATOM      6  O   UNL     1     -46.818 -10.324 -27.048  0.00  0.00    +0.000 OA
ENDROOT
BRANCH   4   7
ATOM      7  C   UNL     1     -43.294 -13.125 -27.091  0.00  0.00    +0.000 A 
ATOM      8  C   UNL     1     -42.495 -14.072 -27.702  0.00  0.00    +0.000 A 
ATOM      9  C   UNL     1     -42.906 -15.424 -28.183  0.00  0.00    +0.000 C 
ATOM     10  C   UNL     1     -40.092 -14.226 -28.366  0.00  0.00    +0.000 C 
ATOM     11  C   UNL     1     -42.464 -12.047 -26.831  0.00  0.00    +0.000 A 
ATOM     12  N   UNL     1     -41.253 -13.568 -27.791  0.00  0.00    +0.000 N 
ATOM     13  N   UNL     1     -41.224 -12.352 -27.272  0.00  0.00    +0.000 NA
ENDBRANCH   4   7
BRANCH   1  14
ATOM     14  C   UNL     1     -45.675 -13.997 -24.593  0.00  0.00    +0.000 C 
ATOM     15  N   UNL     1     -45.706 -15.289 -25.205  0.00  0.00    +0.000 NA
ATOM     16  O   UNL     1     -46.213 -13.810 -23.469  0.00  0.00    +0.000 OA
BRANCH  15  17
ATOM     17  C   UNL     1     -46.330 -16.434 -24.565  0.00  0.00    +0.000 C 
BRANCH  17  19
ATOM     18  C   UNL     1     -44.580 -19.034 -26.199  0.00  0.00    +0.000 A 
ATOM     19  C   UNL     1     -45.757 -17.687 -25.126  0.00  0.00    +0.000 A 
ATOM     20  N   UNL     1     -44.658 -17.720 -25.905  0.00  0.00    +0.000 NA
ATOM     21  N   UNL     1     -46.319 -18.899 -24.965  0.00  0.00    +0.000 NA
ATOM     22  N   UNL     1     -45.569 -19.753 -25.639  0.00  0.00    +0.000 NA
BRANCH  18  24
ATOM     23  C   UNL     1     -42.167 -19.015 -26.700  0.00  0.00    +0.000 C 
ATOM     24  C   UNL     1     -43.509 -19.631 -27.045  0.00  0.00    +0.000 C 
ENDBRANCH  18  24
ENDBRANCH  17  19
ENDBRANCH  15  17
ENDBRANCH   1  14
BRANCH   5  25
ATOM     25  C   UNL     1     -45.557 -12.147 -28.989  0.00  0.00    +0.000 C 
ATOM     26  C   UNL     1     -46.938 -12.527 -29.492  0.00  0.00    +0.000 C 
ATOM     27  C   UNL     1     -45.806 -13.524 -29.580  0.00  0.00    +0.000 C 
ENDBRANCH   5  25
TORSDOF 6
ENDMDL
MODEL 3
REMARK VINA RESULT:      -5.5     10.909     14.901
REMARK  Name = ZINC000615451238 MolPort-044-610-126
REMARK  6 active torsions:
REMARK  status: ('A' for Active; 'I' for Inactive)
REMARK    1  A    between atoms: C_2  and  C_3
REMARK    2  A    between atoms: C_4  and  C_5
REMARK    3  A    between atoms: C_5  and  N_22
REMARK    4  A    between atoms: C_6  and  C_7
REMARK    5  A    between atoms: C_10  and  N_23
REMARK    6  A    between atoms: C_13  and  C_14
REMARK                            x       y       z     vdW  Elec       q    Type
REMARK                         _______ _______ _______ _____ _____    ______ ____
ROOT
ATOM      1  C   UNL     1     -45.719 -17.005 -24.150  0.00  0.00    +0.000 C 
ATOM      2  C   UNL     1     -45.581 -16.144 -25.413  0.00  0.00    +0.000 C 
ATOM      3  C   UNL     1     -44.535 -15.170 -25.046  0.00  0.00    +0.000 C 
ATOM      4  C   UNL     1     -44.753 -16.445 -23.091  0.00  0.00    +0.000 C 
ATOM      5  N   UNL     1     -44.036 -15.355 -23.736  0.00  0.00    +0.000 N 
ATOM      6  O   UNL     1     -44.129 -14.259 -25.816  0.00  0.00    +0.000 OA
ENDROOT
BRANCH   4   7
ATOM      7  C   UNL     1     -45.502 -15.967 -21.883  0.00  0.00    +0.000 A 
ATOM      8  C   UNL     1     -45.674 -16.594 -20.665  0.00  0.00    +0.000 A 
ATOM      9  C   UNL     1     -45.146 -17.928 -20.255  0.00  0.00    +0.000 C 
ATOM     10  C   UNL     1     -46.838 -16.052 -18.522  0.00  0.00    +0.000 C 
ATOM     11  C   UNL     1     -46.175 -14.760 -21.782  0.00  0.00    +0.000 A 
ATOM     12  N   UNL     1     -46.417 -15.788 -19.888  0.00  0.00    +0.000 N 
ATOM     13  N   UNL     1     -46.721 -14.684 -20.548  0.00  0.00    +0.000 NA
ENDBRANCH   4   7
BRANCH   1  14
ATOM     14  C   UNL     1     -45.387 -18.428 -24.452  0.00  0.00    +0.000 C 
ATOM     15  N   UNL     1     -44.134 -18.977 -24.039  0.00  0.00    +0.000 NA
ATOM     16  O   UNL     1     -46.223 -19.140 -25.070  0.00  0.00    +0.000 OA
BRANCH  15  17
ATOM     17  C   UNL     1     -43.775 -20.362 -24.290  0.00  0.00    +0.000 C 
BRANCH  17  19
ATOM     18  C   UNL     1     -41.845 -20.989 -21.396  0.00  0.00    +0.000 A 
ATOM     19  C   UNL     1     -42.947 -20.870 -23.163  0.00  0.00    +0.000 A 
ATOM     20  N   UNL     1     -42.635 -20.135 -22.078  0.00  0.00    +0.000 NA
ATOM     21  N   UNL     1     -42.375 -22.088 -23.150  0.00  0.00    +0.000 NA
ATOM     22  N   UNL     1     -41.684 -22.166 -22.027  0.00  0.00    +0.000 NA
BRANCH  18  24
ATOM     23  C   UNL     1     -41.815 -21.555 -18.997  0.00  0.00    +0.000 C 
ATOM     24  C   UNL     1     -41.224 -20.672 -20.079  0.00  0.00    +0.000 C 
ENDBRANCH  18  24
ENDBRANCH  17  19
ENDBRANCH  15  17
ENDBRANCH   1  14
BRANCH   5  25
ATOM     25  C   UNL     1     -43.035 -14.507 -23.092  0.00  0.00    +0.000 C 
ATOM     26  C   UNL     1     -41.685 -14.704 -23.759  0.00  0.00    +0.000 C 
ATOM     27  C   UNL     1     -41.971 -15.367 -22.432  0.00  0.00    +0.000 C 
ENDBRANCH   5  25
TORSDOF 6
ENDMDL
