MODEL 1
REMARK VINA RESULT:      -6.1      0.000      0.000
REMARK  Name = ZINC000072242289 ZINC72242289 PubChem-95740500
REMARK  4 active torsions:
REMARK  status: ('A' for Active; 'I' for Inactive)
REMARK    1  A    between atoms: C_5  and  C_6
REMARK    2  A    between atoms: C_6  and  N_22
REMARK    3  A    between atoms: C_7  and  C_8
REMARK    4  A    between atoms: C_11  and  C_12
REMARK                            x       y       z     vdW  Elec       q    Type
REMARK                         _______ _______ _______ _____ _____    ______ ____
ROOT
ATOM      1  C   UNL     1     -46.353  -3.790 -32.063  0.00  0.00    +0.000 C 
ATOM      2  C   UNL     1     -47.343  -4.349 -33.093  0.00  0.00    +0.000 C 
ATOM      3  C   UNL     1     -46.467  -5.027 -34.069  0.00  0.00    +0.000 C 
ATOM      4  C   UNL     1     -44.942  -4.257 -32.469  0.00  0.00    +0.000 C 
ATOM      5  C   UNL     1     -44.048  -5.716 -34.380  0.00  0.00    +0.000 C 
ATOM      6  O   UNL     1     -46.894  -5.629 -35.089  0.00  0.00    +0.000 OA
ATOM      7  N   UNL     1     -45.099  -4.945 -33.736  0.00  0.00    +0.000 N 
ENDROOT
BRANCH   4   8
ATOM      8  C   UNL     1     -44.008  -3.092 -32.599  0.00  0.00    +0.000 A 
ATOM      9  C   UNL     1     -42.664  -3.190 -32.207  0.00  0.00    +0.000 A 
ATOM     10  C   UNL     1     -41.812  -2.089 -32.340  0.00  0.00    +0.000 A 
ATOM     11  C   UNL     1     -42.299  -0.888 -32.864  0.00  0.00    +0.000 A 
ATOM     12  C   UNL     1     -43.638  -0.788 -33.255  0.00  0.00    +0.000 A 
ATOM     13  C   UNL     1     -44.490  -1.887 -33.123  0.00  0.00    +0.000 A 
ATOM     14  F   UNL     1     -41.474   0.178 -32.992  0.00  0.00    +0.000 F 
ENDBRANCH   4   8
BRANCH   1  15
ATOM     15  C   UNL     1     -46.691  -4.271 -30.690  0.00  0.00    +0.000 C 
ATOM     16  O   UNL     1     -46.974  -3.431 -29.795  0.00  0.00    +0.000 OA
ATOM     17  N   UNL     1     -46.690  -5.669 -30.397  0.00  0.00    +0.000 NA
BRANCH  17  18
ATOM     18  C   UNL     1     -47.008  -6.181 -29.074  0.00  0.00    +0.000 C 
BRANCH  18  23
ATOM     19  C   UNL     1     -42.215  -6.506 -28.071  0.00  0.00    +0.000 C 
ATOM     20  C   UNL     1     -43.689  -6.551 -27.883  0.00  0.00    +0.000 A 
ATOM     21  C   UNL     1     -44.329  -6.903 -26.711  0.00  0.00    +0.000 A 
ATOM     22  C   UNL     1     -45.683  -6.808 -26.992  0.00  0.00    +0.000 A 
ATOM     23  C   UNL     1     -45.750  -6.401 -28.311  0.00  0.00    +0.000 A 
ATOM     24  O   UNL     1     -44.554  -6.258 -28.819  0.00  0.00    +0.000 OA
ENDBRANCH  18  23
ENDBRANCH  17  18
ENDBRANCH   1  15
TORSDOF 4
ENDMDL
MODEL 2
REMARK VINA RESULT:      -6.0      1.650      2.126
REMARK  Name = ZINC000072242289 ZINC72242289 PubChem-95740500
REMARK  4 active torsions:
REMARK  status: ('A' for Active; 'I' for Inactive)
REMARK    1  A    between atoms: C_5  and  C_6
REMARK    2  A    between atoms: C_6  and  N_22
REMARK    3  A    between atoms: C_7  and  C_8
REMARK    4  A    between atoms: C_11  and  C_12
REMARK                            x       y       z     vdW  Elec       q    Type
REMARK                         _______ _______ _______ _____ _____    ______ ____
ROOT
ATOM      1  C   UNL     1     -46.266  -3.696 -31.980  0.00  0.00    +0.000 C 
ATOM      2  C   UNL     1     -47.297  -4.227 -32.985  0.00  0.00    +0.000 C 
ATOM      3  C   UNL     1     -46.463  -4.905 -33.997  0.00  0.00    +0.000 C 
ATOM      4  C   UNL     1     -44.876  -4.177 -32.437  0.00  0.00    +0.000 C 
ATOM      5  C   UNL     1     -44.065  -5.625 -34.394  0.00  0.00    +0.000 C 
ATOM      6  O   UNL     1     -46.930  -5.488 -35.010  0.00  0.00    +0.000 OA
ATOM      7  N   UNL     1     -45.083  -4.847 -33.707  0.00  0.00    +0.000 N 
ENDROOT
BRANCH   4   8
ATOM      8  C   UNL     1     -43.929  -3.024 -32.583  0.00  0.00    +0.000 A 
ATOM      9  C   UNL     1     -42.576  -3.146 -32.234  0.00  0.00    +0.000 A 
ATOM     10  C   UNL     1     -41.712  -2.056 -32.381  0.00  0.00    +0.000 A 
ATOM     11  C   UNL     1     -42.197  -0.842 -32.876  0.00  0.00    +0.000 A 
ATOM     12  C   UNL     1     -43.546  -0.718 -33.224  0.00  0.00    +0.000 A 
ATOM     13  C   UNL     1     -44.409  -1.807 -33.079  0.00  0.00    +0.000 A 
ATOM     14  F   UNL     1     -41.361   0.214 -33.018  0.00  0.00    +0.000 F 
ENDBRANCH   4   8
BRANCH   1  15
ATOM     15  C   UNL     1     -46.567  -4.189 -30.604  0.00  0.00    +0.000 C 
ATOM     16  O   UNL     1     -46.746  -3.356 -29.675  0.00  0.00    +0.000 OA
ATOM     17  N   UNL     1     -46.649  -5.591 -30.344  0.00  0.00    +0.000 NA
BRANCH  17  18
ATOM     18  C   UNL     1     -46.934  -6.115 -29.019  0.00  0.00    +0.000 C 
BRANCH  18  23
ATOM     19  C   UNL     1     -46.292 -10.811 -27.747  0.00  0.00    +0.000 C 
ATOM     20  C   UNL     1     -46.711  -9.621 -28.532  0.00  0.00    +0.000 A 
ATOM     21  C   UNL     1     -47.366  -9.661 -29.747  0.00  0.00    +0.000 A 
ATOM     22  C   UNL     1     -47.552  -8.334 -30.105  0.00  0.00    +0.000 A 
ATOM     23  C   UNL     1     -46.997  -7.601 -29.074  0.00  0.00    +0.000 A 
ATOM     24  O   UNL     1     -46.500  -8.386 -28.154  0.00  0.00    +0.000 OA
ENDBRANCH  18  23
ENDBRANCH  17  18
ENDBRANCH   1  15
TORSDOF 4
ENDMDL
MODEL 3
REMARK VINA RESULT:      -6.0     12.061     15.173
REMARK  Name = ZINC000072242289 ZINC72242289 PubChem-95740500
REMARK  4 active torsions:
REMARK  status: ('A' for Active; 'I' for Inactive)
REMARK    1  A    between atoms: C_5  and  C_6
REMARK    2  A    between atoms: C_6  and  N_22
REMARK    3  A    between atoms: C_7  and  C_8
REMARK    4  A    between atoms: C_11  and  C_12
REMARK                            x       y       z     vdW  Elec       q    Type
REMARK                         _______ _______ _______ _____ _____    ______ ____
ROOT
ATOM      1  C   UNL     1     -44.450 -19.391 -25.693  0.00  0.00    +0.000 C 
ATOM      2  C   UNL     1     -44.309 -20.439 -24.581  0.00  0.00    +0.000 C 
ATOM      3  C   UNL     1     -42.864 -20.416 -24.277  0.00  0.00    +0.000 C 
ATOM      4  C   UNL     1     -43.065 -18.753 -25.914  0.00  0.00    +0.000 C 
ATOM      5  C   UNL     1     -40.774 -19.083 -24.807  0.00  0.00    +0.000 C 
ATOM      6  O   UNL     1     -42.323 -21.140 -23.402  0.00  0.00    +0.000 OA
ATOM      7  N   UNL     1     -42.149 -19.483 -25.058  0.00  0.00    +0.000 N 
ENDROOT
BRANCH   4   8
ATOM      8  C   UNL     1     -42.653 -18.848 -27.352  0.00  0.00    +0.000 A 
ATOM      9  C   UNL     1     -42.706 -20.067 -28.044  0.00  0.00    +0.000 A 
ATOM     10  C   UNL     1     -42.318 -20.129 -29.386  0.00  0.00    +0.000 A 
ATOM     11  C   UNL     1     -41.874 -18.976 -30.039  0.00  0.00    +0.000 A 
ATOM     12  C   UNL     1     -41.820 -17.760 -29.351  0.00  0.00    +0.000 A 
ATOM     13  C   UNL     1     -42.209 -17.696 -28.010  0.00  0.00    +0.000 A 
ATOM     14  F   UNL     1     -41.498 -19.036 -31.339  0.00  0.00    +0.000 F 
ENDBRANCH   4   8
BRANCH   1  15
ATOM     15  C   UNL     1     -45.453 -18.353 -25.316  0.00  0.00    +0.000 C 
ATOM     16  O   UNL     1     -46.639 -18.701 -25.067  0.00  0.00    +0.000 OA
ATOM     17  N   UNL     1     -45.073 -16.977 -25.242  0.00  0.00    +0.000 NA
BRANCH  17  18
ATOM     18  C   UNL     1     -46.018 -15.933 -24.884  0.00  0.00    +0.000 C 
BRANCH  18  23
ATOM     19  C   UNL     1     -46.856 -11.614 -27.058  0.00  0.00    +0.000 C 
ATOM     20  C   UNL     1     -46.299 -12.970 -26.811  0.00  0.00    +0.000 A 
ATOM     21  C   UNL     1     -45.410 -13.626 -27.640  0.00  0.00    +0.000 A 
ATOM     22  C   UNL     1     -45.170 -14.845 -27.024  0.00  0.00    +0.000 A 
ATOM     23  C   UNL     1     -45.931 -14.823 -25.871  0.00  0.00    +0.000 A 
ATOM     24  O   UNL     1     -46.595 -13.701 -25.768  0.00  0.00    +0.000 OA
ENDBRANCH  18  23
ENDBRANCH  17  18
ENDBRANCH   1  15
TORSDOF 4
ENDMDL
