MODEL 1
REMARK VINA RESULT:      -6.4      0.000      0.000
REMARK  Name = ZINC000072335159 ZINC72335159 PubChem-95797838
REMARK  4 active torsions:
REMARK  status: ('A' for Active; 'I' for Inactive)
REMARK    1  A    between atoms: C_3  and  C_6
REMARK    2  A    between atoms: C_8  and  C_10
REMARK    3  A    between atoms: C_11  and  C_12
REMARK    4  A    between atoms: C_11  and  N_22
REMARK                            x       y       z     vdW  Elec       q    Type
REMARK                         _______ _______ _______ _____ _____    ______ ____
ROOT
ATOM      1  C   UNL     1     -46.549  -9.888 -31.441  0.00  0.00    +0.000 C 
ATOM      2  C   UNL     1     -46.971  -8.465 -31.824  0.00  0.00    +0.000 C 
ATOM      3  C   UNL     1     -46.106  -7.403 -31.143  0.00  0.00    +0.000 C 
ATOM      4  C   UNL     1     -43.921  -6.474 -30.933  0.00  0.00    +0.000 C 
ATOM      5  N   UNL     1     -44.740  -7.423 -31.681  0.00  0.00    +0.000 NA
ATOM      6  N   UNL     1     -45.196 -10.213 -31.903  0.00  0.00    +0.000 NA
ATOM      7  S   UNL     1     -44.062  -8.997 -31.396  0.00  0.00    +0.000 S 
ATOM      8  O   UNL     1     -42.798  -9.144 -32.195  0.00  0.00    +0.000 OA
ATOM      9  O   UNL     1     -43.745  -9.178 -29.936  0.00  0.00    +0.000 OA
ENDROOT
BRANCH   1  12
ATOM     10  C   UNL     1     -46.317 -12.768 -30.037  0.00  0.00    +0.000 C 
ATOM     11  C   UNL     1     -46.637 -11.473 -29.377  0.00  0.00    +0.000 A 
ATOM     12  C   UNL     1     -46.772 -10.235 -29.989  0.00  0.00    +0.000 A 
ATOM     13  C   UNL     1     -46.981  -9.340 -28.953  0.00  0.00    +0.000 A 
ATOM     14  C   UNL     1     -47.206  -9.503 -26.487  0.00  0.00    +0.000 C 
ATOM     15  N   UNL     1     -47.006 -10.055 -27.814  0.00  0.00    +0.000 N 
ATOM     16  N   UNL     1     -46.792 -11.338 -28.049  0.00  0.00    +0.000 NA
ENDBRANCH   1  12
BRANCH   3  17
ATOM     17  C   UNL     1     -46.754  -6.068 -31.354  0.00  0.00    +0.000 C 
ATOM     18  N   UNL     1     -46.619  -5.397 -32.609  0.00  0.00    +0.000 NA
ATOM     19  O   UNL     1     -47.411  -5.545 -30.416  0.00  0.00    +0.000 OA
BRANCH  18  20
ATOM     20  C   UNL     1     -47.226  -4.099 -32.857  0.00  0.00    +0.000 C 
BRANCH  20  21
ATOM     21  C   UNL     1     -46.211  -3.028 -32.674  0.00  0.00    +0.000 A 
ATOM     22  C   UNL     1     -46.045  -2.427 -31.422  0.00  0.00    +0.000 A 
ATOM     23  C   UNL     1     -45.075  -1.436 -31.244  0.00  0.00    +0.000 A 
ATOM     24  C   UNL     1     -44.265  -1.049 -32.317  0.00  0.00    +0.000 A 
ATOM     25  C   UNL     1     -44.425  -1.655 -33.567  0.00  0.00    +0.000 A 
ATOM     26  C   UNL     1     -45.395  -2.646 -33.746  0.00  0.00    +0.000 A 
ATOM     27  F   UNL     1     -43.326  -0.089 -32.145  0.00  0.00    +0.000 F 
ENDBRANCH  20  21
ENDBRANCH  18  20
ENDBRANCH   3  17
TORSDOF 4
ENDMDL
MODEL 2
REMARK VINA RESULT:      -6.2      8.298     11.685
REMARK  Name = ZINC000072335159 ZINC72335159 PubChem-95797838
REMARK  4 active torsions:
REMARK  status: ('A' for Active; 'I' for Inactive)
REMARK    1  A    between atoms: C_3  and  C_6
REMARK    2  A    between atoms: C_8  and  C_10
REMARK    3  A    between atoms: C_11  and  C_12
REMARK    4  A    between atoms: C_11  and  N_22
REMARK                            x       y       z     vdW  Elec       q    Type
REMARK                         _______ _______ _______ _____ _____    ______ ____
ROOT
ATOM      1  C   UNL     1     -45.268 -19.258 -24.347  0.00  0.00    +0.000 C 
ATOM      2  C   UNL     1     -45.586 -17.792 -24.660  0.00  0.00    +0.000 C 
ATOM      3  C   UNL     1     -44.364 -17.034 -25.178  0.00  0.00    +0.000 C 
ATOM      4  C   UNL     1     -42.757 -16.840 -26.928  0.00  0.00    +0.000 C 
ATOM      5  N   UNL     1     -43.987 -17.509 -26.515  0.00  0.00    +0.000 NA
ATOM      6  N   UNL     1     -44.890 -20.016 -25.543  0.00  0.00    +0.000 NA
ATOM      7  S   UNL     1     -43.620 -19.205 -26.411  0.00  0.00    +0.000 S 
ATOM      8  O   UNL     1     -43.531 -19.779 -27.796  0.00  0.00    +0.000 OA
ATOM      9  O   UNL     1     -42.309 -19.417 -25.704  0.00  0.00    +0.000 OA
ENDROOT
BRANCH   1  12
ATOM     10  C   UNL     1     -45.538 -18.176 -21.334  0.00  0.00    +0.000 C 
ATOM     11  C   UNL     1     -44.444 -19.019 -21.889  0.00  0.00    +0.000 A 
ATOM     12  C   UNL     1     -44.309 -19.457 -23.198  0.00  0.00    +0.000 A 
ATOM     13  C   UNL     1     -43.191 -20.273 -23.194  0.00  0.00    +0.000 A 
ATOM     14  C   UNL     1     -41.518 -20.980 -21.503  0.00  0.00    +0.000 C 
ATOM     15  N   UNL     1     -42.696 -20.257 -21.943  0.00  0.00    +0.000 N 
ATOM     16  N   UNL     1     -43.441 -19.515 -21.143  0.00  0.00    +0.000 NA
ENDBRANCH   1  12
BRANCH   3  17
ATOM     17  C   UNL     1     -44.694 -15.572 -25.195  0.00  0.00    +0.000 C 
ATOM     18  N   UNL     1     -45.793 -15.094 -25.973  0.00  0.00    +0.000 NA
ATOM     19  O   UNL     1     -43.991 -14.772 -24.522  0.00  0.00    +0.000 OA
BRANCH  18  20
ATOM     20  C   UNL     1     -46.146 -13.684 -26.022  0.00  0.00    +0.000 C 
BRANCH  20  21
ATOM     21  C   UNL     1     -46.117 -13.209 -27.431  0.00  0.00    +0.000 A 
ATOM     22  C   UNL     1     -45.495 -13.981 -28.418  0.00  0.00    +0.000 A 
ATOM     23  C   UNL     1     -45.488 -13.547 -29.746  0.00  0.00    +0.000 A 
ATOM     24  C   UNL     1     -46.108 -12.341 -30.091  0.00  0.00    +0.000 A 
ATOM     25  C   UNL     1     -46.737 -11.573 -29.107  0.00  0.00    +0.000 A 
ATOM     26  C   UNL     1     -46.745 -12.007 -27.778  0.00  0.00    +0.000 A 
ATOM     27  F   UNL     1     -46.100 -11.920 -31.378  0.00  0.00    +0.000 F 
ENDBRANCH  20  21
ENDBRANCH  18  20
ENDBRANCH   3  17
TORSDOF 4
ENDMDL
MODEL 3
REMARK VINA RESULT:      -6.2      3.673      4.483
REMARK  Name = ZINC000072335159 ZINC72335159 PubChem-95797838
REMARK  4 active torsions:
REMARK  status: ('A' for Active; 'I' for Inactive)
REMARK    1  A    between atoms: C_3  and  C_6
REMARK    2  A    between atoms: C_8  and  C_10
REMARK    3  A    between atoms: C_11  and  C_12
REMARK    4  A    between atoms: C_11  and  N_22
REMARK                            x       y       z     vdW  Elec       q    Type
REMARK                         _______ _______ _______ _____ _____    ______ ____
ROOT
ATOM      1  C   UNL     1     -46.873  -9.655 -30.572  0.00  0.00    +0.000 C 
ATOM      2  C   UNL     1     -47.311  -8.187 -30.537  0.00  0.00    +0.000 C 
ATOM      3  C   UNL     1     -46.269  -7.288 -29.869  0.00  0.00    +0.000 C 
ATOM      4  C   UNL     1     -44.057  -6.407 -29.986  0.00  0.00    +0.000 C 
ATOM      5  N   UNL     1     -45.066  -7.180 -30.704  0.00  0.00    +0.000 NA
ATOM      6  N   UNL     1     -45.678  -9.862 -31.396  0.00  0.00    +0.000 NA
ATOM      7  S   UNL     1     -44.407  -8.774 -30.924  0.00  0.00    +0.000 S 
ATOM      8  O   UNL     1     -43.369  -8.735 -32.009  0.00  0.00    +0.000 OA
ATOM      9  O   UNL     1     -43.771  -9.261 -29.651  0.00  0.00    +0.000 OA
ENDROOT
BRANCH   1  12
ATOM     10  C   UNL     1     -46.443 -12.767 -29.901  0.00  0.00    +0.000 C 
ATOM     11  C   UNL     1     -46.549 -11.646 -28.927  0.00  0.00    +0.000 A 
ATOM     12  C   UNL     1     -46.770 -10.307 -29.215  0.00  0.00    +0.000 A 
ATOM     13  C   UNL     1     -46.698  -9.657 -27.995  0.00  0.00    +0.000 A 
ATOM     14  C   UNL     1     -46.356 -10.348 -25.636  0.00  0.00    +0.000 C 
ATOM     15  N   UNL     1     -46.489 -10.601 -27.058  0.00  0.00    +0.000 N 
ATOM     16  N   UNL     1     -46.389 -11.801 -27.601  0.00  0.00    +0.000 NA
ENDBRANCH   1  12
BRANCH   3  17
ATOM     17  C   UNL     1     -46.891  -5.945 -29.638  0.00  0.00    +0.000 C 
ATOM     18  N   UNL     1     -46.953  -5.401 -28.317  0.00  0.00    +0.000 NA
ATOM     19  O   UNL     1     -47.361  -5.305 -30.615  0.00  0.00    +0.000 OA
BRANCH  18  20
ATOM     20  C   UNL     1     -47.551  -4.104 -28.046  0.00  0.00    +0.000 C 
BRANCH  20  21
ATOM     21  C   UNL     1     -47.418  -3.784 -26.599  0.00  0.00    +0.000 A 
ATOM     22  C   UNL     1     -47.255  -4.813 -25.666  0.00  0.00    +0.000 A 
ATOM     23  C   UNL     1     -47.106  -4.511 -24.310  0.00  0.00    +0.000 A 
ATOM     24  C   UNL     1     -47.115  -3.178 -23.885  0.00  0.00    +0.000 A 
ATOM     25  C   UNL     1     -47.270  -2.149 -24.817  0.00  0.00    +0.000 A 
ATOM     26  C   UNL     1     -47.418  -2.450 -26.175  0.00  0.00    +0.000 A 
ATOM     27  F   UNL     1     -46.971  -2.886 -22.570  0.00  0.00    +0.000 F 
ENDBRANCH  20  21
ENDBRANCH  18  20
ENDBRANCH   3  17
TORSDOF 4
ENDMDL
