MODEL 1
REMARK VINA RESULT:      -6.0      0.000      0.000
REMARK  Name = ZINC000005207199 MCULE-6774306245 MolPort-002-650-264
REMARK  9 active torsions:
REMARK  status: ('A' for Active; 'I' for Inactive)
REMARK    1  A    between atoms: C_2  and  C_3
REMARK    2  A    between atoms: C_2  and  N_22
REMARK    3  A    between atoms: C_3  and  C_4
REMARK    4  A    between atoms: C_4  and  O_28
REMARK    5  A    between atoms: C_6  and  C_15
REMARK    6  A    between atoms: C_16  and  C_17
REMARK    7  A    between atoms: C_16  and  N_25
REMARK    8  A    between atoms: C_17  and  C_18
REMARK    9  A    between atoms: C_18  and  N_26
REMARK                            x       y       z     vdW  Elec       q    Type
REMARK                         _______ _______ _______ _____ _____    ______ ____
ROOT
ATOM      1  C   UNL     1     -47.080  -4.614 -27.896  0.00  0.00    +0.000 A 
ATOM      2  C   UNL     1     -46.670  -6.384 -29.042  0.00  0.00    +0.000 A 
ATOM      3  C   UNL     1     -46.492  -6.750 -27.701  0.00  0.00    +0.000 A 
ATOM      4  C   UNL     1     -46.766  -5.588 -27.004  0.00  0.00    +0.000 A 
ATOM      5  C   UNL     1     -46.769  -5.310 -25.642  0.00  0.00    +0.000 A 
ATOM      6  C   UNL     1     -47.107  -3.729 -23.906  0.00  0.00    +0.000 A 
ATOM      7  C   UNL     1     -47.437  -2.445 -23.470  0.00  0.00    +0.000 A 
ATOM      8  C   UNL     1     -47.756  -1.464 -24.408  0.00  0.00    +0.000 A 
ATOM      9  C   UNL     1     -47.744  -1.771 -25.767  0.00  0.00    +0.000 A 
ATOM     10  C   UNL     1     -47.413  -3.064 -26.177  0.00  0.00    +0.000 A 
ATOM     11  N   UNL     1     -47.023  -5.074 -29.152  0.00  0.00    +0.000 N 
ATOM     12  N   UNL     1     -47.095  -4.037 -25.238  0.00  0.00    +0.000 N 
ATOM     13  N   UNL     1     -47.404  -3.358 -27.511  0.00  0.00    +0.000 NA
ATOM     14  O   UNL     1     -46.478  -6.210 -24.806  0.00  0.00    +0.000 OA
ENDROOT
BRANCH   2  15
ATOM     15  C   UNL     1     -46.490  -7.317 -30.171  0.00  0.00    +0.000 C 
ATOM     16  N   UNL     1     -45.198  -7.836 -30.486  0.00  0.00    +0.000 NA
ATOM     17  O   UNL     1     -47.488  -7.657 -30.863  0.00  0.00    +0.000 OA
BRANCH  16  18
ATOM     18  C   UNL     1     -44.981  -8.777 -31.574  0.00  0.00    +0.000 C 
BRANCH  18  19
ATOM     19  C   UNL     1     -44.802 -10.181 -31.019  0.00  0.00    +0.000 C 
BRANCH  19  20
ATOM     20  C   UNL     1     -46.118 -10.951 -31.025  0.00  0.00    +0.000 C 
BRANCH  20  24
ATOM     21  C   UNL     1     -46.846 -12.665 -29.372  0.00  0.00    +0.000 A 
ATOM     22  C   UNL     1     -47.073 -12.681 -28.010  0.00  0.00    +0.000 A 
ATOM     23  C   UNL     1     -46.442 -10.703 -28.558  0.00  0.00    +0.000 A 
ATOM     24  N   UNL     1     -46.448 -11.425 -29.689  0.00  0.00    +0.000 N 
ATOM     25  N   UNL     1     -46.820 -11.453 -27.505  0.00  0.00    +0.000 NA
ENDBRANCH  20  24
ENDBRANCH  19  20
ENDBRANCH  18  19
ENDBRANCH  16  18
ENDBRANCH   2  15
BRANCH  11  26
ATOM     26  C   UNL     1     -47.329  -4.315 -30.358  0.00  0.00    +0.000 C 
BRANCH  26  27
ATOM     27  C   UNL     1     -46.086  -3.595 -30.846  0.00  0.00    +0.000 C 
BRANCH  27  28
ATOM     28  C   UNL     1     -45.542  -4.308 -32.067  0.00  0.00    +0.000 C 
BRANCH  28  30
ATOM     29  C   UNL     1     -45.969  -2.664 -33.473  0.00  0.00    +0.000 C 
ATOM     30  O   UNL     1     -44.918  -3.384 -32.904  0.00  0.00    +0.000 OA
ENDBRANCH  28  30
ENDBRANCH  27  28
ENDBRANCH  26  27
ENDBRANCH  11  26
TORSDOF 9
ENDMDL
MODEL 2
REMARK VINA RESULT:      -6.0      2.395      5.459
REMARK  Name = ZINC000005207199 MCULE-6774306245 MolPort-002-650-264
REMARK  9 active torsions:
REMARK  status: ('A' for Active; 'I' for Inactive)
REMARK    1  A    between atoms: C_2  and  C_3
REMARK    2  A    between atoms: C_2  and  N_22
REMARK    3  A    between atoms: C_3  and  C_4
REMARK    4  A    between atoms: C_4  and  O_28
REMARK    5  A    between atoms: C_6  and  C_15
REMARK    6  A    between atoms: C_16  and  C_17
REMARK    7  A    between atoms: C_16  and  N_25
REMARK    8  A    between atoms: C_17  and  C_18
REMARK    9  A    between atoms: C_18  and  N_26
REMARK                            x       y       z     vdW  Elec       q    Type
REMARK                         _______ _______ _______ _____ _____    ______ ____
ROOT
ATOM      1  C   UNL     1     -46.671  -5.724 -25.803  0.00  0.00    +0.000 A 
ATOM      2  C   UNL     1     -46.486  -6.514 -27.791  0.00  0.00    +0.000 A 
ATOM      3  C   UNL     1     -46.801  -5.158 -27.950  0.00  0.00    +0.000 A 
ATOM      4  C   UNL     1     -46.909  -4.692 -26.652  0.00  0.00    +0.000 A 
ATOM      5  C   UNL     1     -47.196  -3.430 -26.148  0.00  0.00    +0.000 A 
ATOM      6  C   UNL     1     -47.507  -2.036 -24.255  0.00  0.00    +0.000 A 
ATOM      7  C   UNL     1     -47.544  -1.842 -22.873  0.00  0.00    +0.000 A 
ATOM      8  C   UNL     1     -47.295  -2.918 -22.023  0.00  0.00    +0.000 A 
ATOM      9  C   UNL     1     -47.011  -4.174 -22.557  0.00  0.00    +0.000 A 
ATOM     10  C   UNL     1     -46.978  -4.341 -23.943  0.00  0.00    +0.000 A 
ATOM     11  N   UNL     1     -46.414  -6.853 -26.475  0.00  0.00    +0.000 N 
ATOM     12  N   UNL     1     -47.229  -3.264 -24.784  0.00  0.00    +0.000 N 
ATOM     13  N   UNL     1     -46.699  -5.574 -24.458  0.00  0.00    +0.000 NA
ATOM     14  O   UNL     1     -47.419  -2.465 -26.932  0.00  0.00    +0.000 OA
ENDROOT
BRANCH   2  15
ATOM     15  C   UNL     1     -46.265  -7.436 -28.923  0.00  0.00    +0.000 C 
ATOM     16  N   UNL     1     -47.368  -8.079 -29.562  0.00  0.00    +0.000 NA
ATOM     17  O   UNL     1     -45.090  -7.657 -29.326  0.00  0.00    +0.000 OA
BRANCH  16  18
ATOM     18  C   UNL     1     -47.196  -8.975 -30.695  0.00  0.00    +0.000 C 
BRANCH  18  19
ATOM     19  C   UNL     1     -47.614  -8.274 -31.979  0.00  0.00    +0.000 C 
BRANCH  19  20
ATOM     20  C   UNL     1     -46.418  -7.632 -32.673  0.00  0.00    +0.000 C 
BRANCH  20  24
ATOM     21  C   UNL     1     -46.609  -5.571 -34.057  0.00  0.00    +0.000 A 
ATOM     22  C   UNL     1     -46.847  -4.235 -33.799  0.00  0.00    +0.000 A 
ATOM     23  C   UNL     1     -46.879  -5.290 -31.929  0.00  0.00    +0.000 A 
ATOM     24  N   UNL     1     -46.639  -6.208 -32.878  0.00  0.00    +0.000 N 
ATOM     25  N   UNL     1     -47.015  -4.064 -32.469  0.00  0.00    +0.000 NA
ENDBRANCH  20  24
ENDBRANCH  19  20
ENDBRANCH  18  19
ENDBRANCH  16  18
ENDBRANCH   2  15
BRANCH  11  26
ATOM     26  C   UNL     1     -46.084  -8.146 -25.887  0.00  0.00    +0.000 C 
BRANCH  26  27
ATOM     27  C   UNL     1     -47.297  -9.056 -25.925  0.00  0.00    +0.000 C 
BRANCH  27  28
ATOM     28  C   UNL     1     -47.016 -10.225 -26.846  0.00  0.00    +0.000 C 
BRANCH  28  30
ATOM     29  C   UNL     1     -46.050 -11.928 -25.832  0.00  0.00    +0.000 C 
ATOM     30  O   UNL     1     -47.300 -11.418 -26.183  0.00  0.00    +0.000 OA
ENDBRANCH  28  30
ENDBRANCH  27  28
ENDBRANCH  26  27
ENDBRANCH  11  26
TORSDOF 9
ENDMDL
MODEL 3
REMARK VINA RESULT:      -5.8      2.108      5.309
REMARK  Name = ZINC000005207199 MCULE-6774306245 MolPort-002-650-264
REMARK  9 active torsions:
REMARK  status: ('A' for Active; 'I' for Inactive)
REMARK    1  A    between atoms: C_2  and  C_3
REMARK    2  A    between atoms: C_2  and  N_22
REMARK    3  A    between atoms: C_3  and  C_4
REMARK    4  A    between atoms: C_4  and  O_28
REMARK    5  A    between atoms: C_6  and  C_15
REMARK    6  A    between atoms: C_16  and  C_17
REMARK    7  A    between atoms: C_16  and  N_25
REMARK    8  A    between atoms: C_17  and  C_18
REMARK    9  A    between atoms: C_18  and  N_26
REMARK                            x       y       z     vdW  Elec       q    Type
REMARK                         _______ _______ _______ _____ _____    ______ ____
ROOT
ATOM      1  C   UNL     1     -45.753  -4.664 -31.063  0.00  0.00    +0.000 A 
ATOM      2  C   UNL     1     -46.086  -6.783 -30.961  0.00  0.00    +0.000 A 
ATOM      3  C   UNL     1     -45.178  -6.592 -32.011  0.00  0.00    +0.000 A 
ATOM      4  C   UNL     1     -44.993  -5.221 -32.039  0.00  0.00    +0.000 A 
ATOM      5  C   UNL     1     -44.204  -4.416 -32.851  0.00  0.00    +0.000 A 
ATOM      6  C   UNL     1     -43.457  -2.236 -33.415  0.00  0.00    +0.000 A 
ATOM      7  C   UNL     1     -43.454  -0.855 -33.214  0.00  0.00    +0.000 A 
ATOM      8  C   UNL     1     -44.245  -0.308 -32.204  0.00  0.00    +0.000 A 
ATOM      9  C   UNL     1     -45.027  -1.141 -31.406  0.00  0.00    +0.000 A 
ATOM     10  C   UNL     1     -45.009  -2.520 -31.626  0.00  0.00    +0.000 A 
ATOM     11  N   UNL     1     -46.437  -5.599 -30.391  0.00  0.00    +0.000 N 
ATOM     12  N   UNL     1     -44.221  -3.058 -32.635  0.00  0.00    +0.000 N 
ATOM     13  N   UNL     1     -45.778  -3.330 -30.839  0.00  0.00    +0.000 NA
ATOM     14  O   UNL     1     -43.494  -4.927 -33.761  0.00  0.00    +0.000 OA
ENDROOT
BRANCH   2  15
ATOM     15  C   UNL     1     -46.582  -8.110 -30.547  0.00  0.00    +0.000 C 
ATOM     16  N   UNL     1     -45.745  -9.002 -29.810  0.00  0.00    +0.000 NA
ATOM     17  O   UNL     1     -47.756  -8.458 -30.849  0.00  0.00    +0.000 OA
BRANCH  16  18
ATOM     18  C   UNL     1     -46.203 -10.307 -29.361  0.00  0.00    +0.000 C 
BRANCH  18  19
ATOM     19  C   UNL     1     -45.633 -11.394 -30.260  0.00  0.00    +0.000 C 
BRANCH  19  20
ATOM     20  C   UNL     1     -46.385 -12.709 -30.083  0.00  0.00    +0.000 C 
BRANCH  20  24
ATOM     21  C   UNL     1     -45.251 -14.046 -28.315  0.00  0.00    +0.000 A 
ATOM     22  C   UNL     1     -45.482 -14.300 -26.977  0.00  0.00    +0.000 A 
ATOM     23  C   UNL     1     -47.027 -12.986 -27.683  0.00  0.00    +0.000 A 
ATOM     24  N   UNL     1     -46.223 -13.222 -28.731  0.00  0.00    +0.000 N 
ATOM     25  N   UNL     1     -46.592 -13.636 -26.586  0.00  0.00    +0.000 NA
ENDBRANCH  20  24
ENDBRANCH  19  20
ENDBRANCH  18  19
ENDBRANCH  16  18
ENDBRANCH   2  15
BRANCH  11  26
ATOM     26  C   UNL     1     -47.327  -5.364 -29.260  0.00  0.00    +0.000 C 
BRANCH  26  27
ATOM     27  C   UNL     1     -46.557  -5.491 -27.960  0.00  0.00    +0.000 C 
BRANCH  27  28
ATOM     28  C   UNL     1     -47.185  -4.590 -26.917  0.00  0.00    +0.000 C 
BRANCH  28  30
ATOM     29  C   UNL     1     -47.430  -2.517 -26.208  0.00  0.00    +0.000 C 
ATOM     30  O   UNL     1     -47.103  -3.264 -27.339  0.00  0.00    +0.000 OA
ENDBRANCH  28  30
ENDBRANCH  27  28
ENDBRANCH  26  27
ENDBRANCH  11  26
TORSDOF 9
ENDMDL
