MODEL 1
REMARK VINA RESULT:      -6.4      0.000      0.000
REMARK  Name = ZINC000030726767 ZINC30726767 PubChem-37870901
REMARK  7 active torsions:
REMARK  status: ('A' for Active; 'I' for Inactive)
REMARK    1  A    between atoms: C_2  and  O_25
REMARK    2  A    between atoms: C_3  and  O_25
REMARK    3  A    between atoms: C_8  and  N_29
REMARK    4  A    between atoms: C_9  and  C_10
REMARK    5  A    between atoms: C_10  and  C_11
REMARK    6  A    between atoms: C_11  and  C_12
REMARK    7  A    between atoms: C_18  and  O_27
REMARK                            x       y       z     vdW  Elec       q    Type
REMARK                         _______ _______ _______ _____ _____    ______ ____
ROOT
ATOM      1  C   UNL     1     -42.777 -17.921 -26.379  0.00  0.00    +0.000 C 
ATOM      2  O   UNL     1     -41.688 -18.529 -26.213  0.00  0.00    +0.000 OA
ATOM      3  N   UNL     1     -42.792 -16.489 -26.299  0.00  0.00    +0.000 NA
ENDROOT
BRANCH   3   9
ATOM      4  C   UNL     1     -44.726 -15.115 -25.658  0.00  0.00    +0.000 A 
ATOM      5  C   UNL     1     -45.771 -14.228 -25.996  0.00  0.00    +0.000 A 
ATOM      6  C   UNL     1     -45.922 -13.853 -27.327  0.00  0.00    +0.000 A 
ATOM      7  C   UNL     1     -45.083 -14.315 -28.293  0.00  0.00    +0.000 A 
ATOM      8  C   UNL     1     -44.038 -15.187 -28.003  0.00  0.00    +0.000 A 
ATOM      9  C   UNL     1     -43.862 -15.606 -26.668  0.00  0.00    +0.000 A 
ATOM     10  C   UNL     1     -46.558 -12.962 -29.422  0.00  0.00    +0.000 C 
ATOM     11  C   UNL     1     -46.932 -12.942 -27.923  0.00  0.00    +0.000 C 
ATOM     12  C   UNL     1     -46.202 -11.561 -29.879  0.00  0.00    +0.000 C 
ATOM     13  O   UNL     1     -45.414 -13.810 -29.531  0.00  0.00    +0.000 OA
BRANCH   4  14
ATOM     14  O   UNL     1     -44.530 -15.527 -24.335  0.00  0.00    +0.000 OA
BRANCH  14  16
ATOM     15  C   UNL     1     -45.990 -15.088 -22.487  0.00  0.00    +0.000 C 
ATOM     16  C   UNL     1     -44.738 -14.666 -23.224  0.00  0.00    +0.000 C 
ENDBRANCH  14  16
ENDBRANCH   4  14
ENDBRANCH   3   9
BRANCH   1  17
ATOM     17  C   UNL     1     -44.023 -18.721 -26.570  0.00  0.00    +0.000 C 
BRANCH  17  18
ATOM     18  C   UNL     1     -43.987 -19.949 -25.676  0.00  0.00    +0.000 C 
BRANCH  18  19
ATOM     19  C   UNL     1     -44.185 -19.562 -24.239  0.00  0.00    +0.000 A 
ATOM     20  C   UNL     1     -43.205 -19.911 -23.275  0.00  0.00    +0.000 A 
ATOM     21  C   UNL     1     -43.427 -19.503 -21.952  0.00  0.00    +0.000 A 
ATOM     22  C   UNL     1     -44.576 -18.845 -21.614  0.00  0.00    +0.000 A 
ATOM     23  C   UNL     1     -45.342 -18.838 -23.832  0.00  0.00    +0.000 A 
ATOM     24  C   UNL     1     -46.381 -18.421 -24.818  0.00  0.00    +0.000 C 
ATOM     25  C   UNL     1     -42.767 -19.661 -20.730  0.00  0.00    +0.000 A 
ATOM     26  C   UNL     1     -45.698 -17.999 -19.549  0.00  0.00    +0.000 C 
ATOM     27  C   UNL     1     -42.034 -20.757 -23.654  0.00  0.00    +0.000 C 
ATOM     28  N   UNL     1     -45.524 -18.508 -22.521  0.00  0.00    +0.000 NA
ATOM     29  N   UNL     1     -44.626 -18.641 -20.291  0.00  0.00    +0.000 N 
ATOM     30  N   UNL     1     -43.531 -19.142 -19.738  0.00  0.00    +0.000 NA
BRANCH  25  32
ATOM     31  C   UNL     1     -41.362 -21.462 -19.790  0.00  0.00    +0.000 C 
ATOM     32  O   UNL     1     -41.519 -20.235 -20.480  0.00  0.00    +0.000 OA
ENDBRANCH  25  32
ENDBRANCH  18  19
ENDBRANCH  17  18
ENDBRANCH   1  17
TORSDOF 7
ENDMDL
MODEL 2
REMARK VINA RESULT:      -6.3      2.565      7.476
REMARK  Name = ZINC000030726767 ZINC30726767 PubChem-37870901
REMARK  7 active torsions:
REMARK  status: ('A' for Active; 'I' for Inactive)
REMARK    1  A    between atoms: C_2  and  O_25
REMARK    2  A    between atoms: C_3  and  O_25
REMARK    3  A    between atoms: C_8  and  N_29
REMARK    4  A    between atoms: C_9  and  C_10
REMARK    5  A    between atoms: C_10  and  C_11
REMARK    6  A    between atoms: C_11  and  C_12
REMARK    7  A    between atoms: C_18  and  O_27
REMARK                            x       y       z     vdW  Elec       q    Type
REMARK                         _______ _______ _______ _____ _____    ______ ____
ROOT
ATOM      1  C   UNL     1     -43.631 -19.831 -22.562  0.00  0.00    +0.000 C 
ATOM      2  O   UNL     1     -43.046 -20.817 -23.080  0.00  0.00    +0.000 OA
ATOM      3  N   UNL     1     -43.710 -19.742 -21.133  0.00  0.00    +0.000 NA
ENDROOT
BRANCH   3   9
ATOM      4  C   UNL     1     -43.148 -17.747 -19.814  0.00  0.00    +0.000 A 
ATOM      5  C   UNL     1     -43.541 -16.619 -19.061  0.00  0.00    +0.000 A 
ATOM      6  C   UNL     1     -44.899 -16.386 -18.868  0.00  0.00    +0.000 A 
ATOM      7  C   UNL     1     -45.841 -17.214 -19.396  0.00  0.00    +0.000 A 
ATOM      8  C   UNL     1     -45.497 -18.333 -20.147  0.00  0.00    +0.000 A 
ATOM      9  C   UNL     1     -44.131 -18.614 -20.350  0.00  0.00    +0.000 A 
ATOM     10  C   UNL     1     -47.053 -15.610 -18.283  0.00  0.00    +0.000 C 
ATOM     11  C   UNL     1     -45.552 -15.281 -18.123  0.00  0.00    +0.000 C 
ATOM     12  C   UNL     1     -47.754 -14.469 -18.994  0.00  0.00    +0.000 C 
ATOM     13  O   UNL     1     -47.114 -16.789 -19.085  0.00  0.00    +0.000 OA
BRANCH   4  14
ATOM     14  O   UNL     1     -41.795 -18.029 -20.037  0.00  0.00    +0.000 OA
BRANCH  14  16
ATOM     15  C   UNL     1     -40.288 -18.152 -21.896  0.00  0.00    +0.000 C 
ATOM     16  C   UNL     1     -40.979 -17.248 -20.898  0.00  0.00    +0.000 C 
ENDBRANCH  14  16
ENDBRANCH   4  14
ENDBRANCH   3   9
BRANCH   1  17
ATOM     17  C   UNL     1     -44.291 -18.837 -23.459  0.00  0.00    +0.000 C 
BRANCH  17  18
ATOM     18  C   UNL     1     -43.304 -17.743 -23.828  0.00  0.00    +0.000 C 
BRANCH  18  19
ATOM     19  C   UNL     1     -43.964 -16.701 -24.683  0.00  0.00    +0.000 A 
ATOM     20  C   UNL     1     -44.596 -15.587 -24.073  0.00  0.00    +0.000 A 
ATOM     21  C   UNL     1     -45.174 -14.630 -24.918  0.00  0.00    +0.000 A 
ATOM     22  C   UNL     1     -45.170 -14.809 -26.272  0.00  0.00    +0.000 A 
ATOM     23  C   UNL     1     -43.956 -16.810 -26.103  0.00  0.00    +0.000 A 
ATOM     24  C   UNL     1     -43.275 -17.947 -26.788  0.00  0.00    +0.000 C 
ATOM     25  C   UNL     1     -45.901 -13.448 -24.745  0.00  0.00    +0.000 A 
ATOM     26  C   UNL     1     -46.102 -13.690 -28.302  0.00  0.00    +0.000 C 
ATOM     27  C   UNL     1     -44.709 -15.499 -22.586  0.00  0.00    +0.000 C 
ATOM     28  N   UNL     1     -44.576 -15.869 -26.872  0.00  0.00    +0.000 NA
ATOM     29  N   UNL     1     -45.860 -13.832 -26.876  0.00  0.00    +0.000 N 
ATOM     30  N   UNL     1     -46.318 -12.998 -25.954  0.00  0.00    +0.000 NA
BRANCH  25  32
ATOM     31  C   UNL     1     -45.549 -11.553 -23.201  0.00  0.00    +0.000 C 
ATOM     32  O   UNL     1     -46.188 -12.765 -23.562  0.00  0.00    +0.000 OA
ENDBRANCH  25  32
ENDBRANCH  18  19
ENDBRANCH  17  18
ENDBRANCH   1  17
TORSDOF 7
ENDMDL
MODEL 3
REMARK VINA RESULT:      -6.3      8.939     15.150
REMARK  Name = ZINC000030726767 ZINC30726767 PubChem-37870901
REMARK  7 active torsions:
REMARK  status: ('A' for Active; 'I' for Inactive)
REMARK    1  A    between atoms: C_2  and  O_25
REMARK    2  A    between atoms: C_3  and  O_25
REMARK    3  A    between atoms: C_8  and  N_29
REMARK    4  A    between atoms: C_9  and  C_10
REMARK    5  A    between atoms: C_10  and  C_11
REMARK    6  A    between atoms: C_11  and  C_12
REMARK    7  A    between atoms: C_18  and  O_27
REMARK                            x       y       z     vdW  Elec       q    Type
REMARK                         _______ _______ _______ _____ _____    ______ ____
ROOT
ATOM      1  C   UNL     1     -47.197  -5.044 -30.080  0.00  0.00    +0.000 C 
ATOM      2  O   UNL     1     -47.756  -3.935 -29.879  0.00  0.00    +0.000 OA
ATOM      3  N   UNL     1     -46.743  -5.808 -28.954  0.00  0.00    +0.000 NA
ENDROOT
BRANCH   3   9
ATOM      4  C   UNL     1     -44.969  -7.451 -28.517  0.00  0.00    +0.000 A 
ATOM      5  C   UNL     1     -44.509  -8.785 -28.484  0.00  0.00    +0.000 A 
ATOM      6  C   UNL     1     -45.375  -9.799 -28.878  0.00  0.00    +0.000 A 
ATOM      7  C   UNL     1     -46.647  -9.527 -29.280  0.00  0.00    +0.000 A 
ATOM      8  C   UNL     1     -47.141  -8.228 -29.323  0.00  0.00    +0.000 A 
ATOM      9  C   UNL     1     -46.288  -7.170 -28.950  0.00  0.00    +0.000 A 
ATOM     10  C   UNL     1     -46.472 -11.812 -29.455  0.00  0.00    +0.000 C 
ATOM     11  C   UNL     1     -45.127 -11.261 -28.928  0.00  0.00    +0.000 C 
ATOM     12  C   UNL     1     -47.070 -12.762 -28.436  0.00  0.00    +0.000 C 
ATOM     13  O   UNL     1     -47.324 -10.678 -29.617  0.00  0.00    +0.000 OA
BRANCH   4  14
ATOM     14  O   UNL     1     -44.138  -6.392 -28.133  0.00  0.00    +0.000 OA
BRANCH  14  16
ATOM     15  C   UNL     1     -42.910  -5.696 -30.070  0.00  0.00    +0.000 C 
ATOM     16  C   UNL     1     -42.826  -6.217 -28.652  0.00  0.00    +0.000 C 
ENDBRANCH  14  16
ENDBRANCH   4  14
ENDBRANCH   3   9
BRANCH   1  17
ATOM     17  C   UNL     1     -46.955  -5.479 -31.487  0.00  0.00    +0.000 C 
BRANCH  17  18
ATOM     18  C   UNL     1     -46.742  -4.263 -32.372  0.00  0.00    +0.000 C 
BRANCH  18  19
ATOM     19  C   UNL     1     -45.310  -4.175 -32.814  0.00  0.00    +0.000 A 
ATOM     20  C   UNL     1     -44.499  -3.103 -32.362  0.00  0.00    +0.000 A 
ATOM     21  C   UNL     1     -43.161  -3.083 -32.784  0.00  0.00    +0.000 A 
ATOM     22  C   UNL     1     -42.692  -4.036 -33.643  0.00  0.00    +0.000 A 
ATOM     23  C   UNL     1     -44.751  -5.162 -33.675  0.00  0.00    +0.000 A 
ATOM     24  C   UNL     1     -45.558  -6.324 -34.148  0.00  0.00    +0.000 C 
ATOM     25  C   UNL     1     -42.069  -2.227 -32.615  0.00  0.00    +0.000 A 
ATOM     26  C   UNL     1     -40.596  -4.535 -34.906  0.00  0.00    +0.000 C 
ATOM     27  C   UNL     1     -45.084  -2.000 -31.542  0.00  0.00    +0.000 C 
ATOM     28  N   UNL     1     -43.455  -5.064 -34.089  0.00  0.00    +0.000 NA
ATOM     29  N   UNL     1     -41.426  -3.770 -33.992  0.00  0.00    +0.000 N 
ATOM     30  N   UNL     1     -41.036  -2.663 -33.376  0.00  0.00    +0.000 NA
BRANCH  25  32
ATOM     31  C   UNL     1     -40.935  -0.133 -31.956  0.00  0.00    +0.000 C 
ATOM     32  O   UNL     1     -41.966  -1.094 -31.806  0.00  0.00    +0.000 OA
ENDBRANCH  25  32
ENDBRANCH  18  19
ENDBRANCH  17  18
ENDBRANCH   1  17
TORSDOF 7
ENDMDL
