MODEL 1
REMARK VINA RESULT:      -6.3      0.000      0.000
REMARK  Name = ZINC000169781247 ChemDiv-S640-0707 MolPort-044-356-519 PubChem-91923255
REMARK  6 active torsions:
REMARK  status: ('A' for Active; 'I' for Inactive)
REMARK    1  A    between atoms: C_2  and  C_3
REMARK    2  A    between atoms: C_5  and  C_6
REMARK    3  A    between atoms: C_6  and  C_7
REMARK    4  A    between atoms: C_7  and  C_8
REMARK    5  A    between atoms: C_10  and  O_24
REMARK    6  A    between atoms: C_13  and  C_14
REMARK                            x       y       z     vdW  Elec       q    Type
REMARK                         _______ _______ _______ _____ _____    ______ ____
ROOT
ATOM      1  C   UNL     1     -46.278 -15.605 -24.723  0.00  0.00    +0.000 C 
ATOM      2  C   UNL     1     -46.208 -17.092 -25.032  0.00  0.00    +0.000 C 
ATOM      3  C   UNL     1     -44.485 -18.567 -26.156  0.00  0.00    +0.000 C 
ATOM      4  C   UNL     1     -44.306 -16.037 -26.105  0.00  0.00    +0.000 C 
ATOM      5  C   UNL     1     -45.192 -14.929 -25.561  0.00  0.00    +0.000 C 
ATOM      6  N   UNL     1     -44.988 -17.277 -25.790  0.00  0.00    +0.000 N 
ATOM      7  O   UNL     1     -45.204 -19.591 -26.003  0.00  0.00    +0.000 OA
ENDROOT
BRANCH   5   8
ATOM      8  C   UNL     1     -45.813 -14.168 -26.686  0.00  0.00    +0.000 A 
ATOM      9  C   UNL     1     -46.258 -13.382 -28.561  0.00  0.00    +0.000 A 
ATOM     10  C   UNL     1     -46.244 -13.084 -30.016  0.00  0.00    +0.000 C 
ATOM     11  N   UNL     1     -45.388 -14.219 -27.965  0.00  0.00    +0.000 NA
ATOM     12  N   UNL     1     -47.153 -12.857 -27.702  0.00  0.00    +0.000 NA
ATOM     13  O   UNL     1     -46.842 -13.369 -26.550  0.00  0.00    +0.000 OA
ENDBRANCH   5   8
BRANCH   1  15
ATOM     14  C   UNL     1     -45.203 -16.159 -21.032  0.00  0.00    +0.000 C 
ATOM     15  C   UNL     1     -46.035 -15.355 -23.270  0.00  0.00    +0.000 C 
ATOM     16  N   UNL     1     -45.474 -16.377 -22.443  0.00  0.00    +0.000 NA
ATOM     17  O   UNL     1     -46.311 -14.226 -22.787  0.00  0.00    +0.000 OA
ENDBRANCH   1  15
BRANCH   3  18
ATOM     18  C   UNL     1     -43.100 -18.715 -26.707  0.00  0.00    +0.000 C 
BRANCH  18  19
ATOM     19  C   UNL     1     -42.057 -18.634 -25.599  0.00  0.00    +0.000 C 
BRANCH  19  20
ATOM     20  C   UNL     1     -42.465 -19.376 -24.363  0.00  0.00    +0.000 A 
ATOM     21  C   UNL     1     -42.907 -18.782 -23.195  0.00  0.00    +0.000 A 
ATOM     22  C   UNL     1     -43.127 -19.883 -22.392  0.00  0.00    +0.000 A 
ATOM     23  N   UNL     1     -42.845 -21.029 -23.041  0.00  0.00    +0.000 NA
ATOM     24  O   UNL     1     -42.448 -20.682 -24.227  0.00  0.00    +0.000 OA
BRANCH  22  26
ATOM     25  C   UNL     1     -42.690 -19.613 -19.989  0.00  0.00    +0.000 C 
ATOM     26  O   UNL     1     -43.581 -19.818 -21.076  0.00  0.00    +0.000 OA
ENDBRANCH  22  26
ENDBRANCH  19  20
ENDBRANCH  18  19
ENDBRANCH   3  18
TORSDOF 6
ENDMDL
MODEL 2
REMARK VINA RESULT:      -6.1      1.955      7.797
REMARK  Name = ZINC000169781247 ChemDiv-S640-0707 MolPort-044-356-519 PubChem-91923255
REMARK  6 active torsions:
REMARK  status: ('A' for Active; 'I' for Inactive)
REMARK    1  A    between atoms: C_2  and  C_3
REMARK    2  A    between atoms: C_5  and  C_6
REMARK    3  A    between atoms: C_6  and  C_7
REMARK    4  A    between atoms: C_7  and  C_8
REMARK    5  A    between atoms: C_10  and  O_24
REMARK    6  A    between atoms: C_13  and  C_14
REMARK                            x       y       z     vdW  Elec       q    Type
REMARK                         _______ _______ _______ _____ _____    ______ ____
ROOT
ATOM      1  C   UNL     1     -43.275 -20.579 -23.344  0.00  0.00    +0.000 C 
ATOM      2  C   UNL     1     -43.965 -20.066 -24.599  0.00  0.00    +0.000 C 
ATOM      3  C   UNL     1     -44.222 -17.773 -25.641  0.00  0.00    +0.000 C 
ATOM      4  C   UNL     1     -43.206 -18.133 -23.345  0.00  0.00    +0.000 C 
ATOM      5  C   UNL     1     -42.977 -19.357 -22.474  0.00  0.00    +0.000 C 
ATOM      6  N   UNL     1     -43.824 -18.625 -24.560  0.00  0.00    +0.000 N 
ATOM      7  O   UNL     1     -44.904 -18.239 -26.593  0.00  0.00    +0.000 OA
ENDROOT
BRANCH   5   8
ATOM      8  C   UNL     1     -43.896 -19.330 -21.297  0.00  0.00    +0.000 A 
ATOM      9  C   UNL     1     -45.474 -18.920 -20.003  0.00  0.00    +0.000 A 
ATOM     10  C   UNL     1     -46.731 -18.383 -19.421  0.00  0.00    +0.000 C 
ATOM     11  N   UNL     1     -45.025 -18.595 -21.231  0.00  0.00    +0.000 NA
ATOM     12  N   UNL     1     -44.672 -19.794 -19.366  0.00  0.00    +0.000 NA
ATOM     13  O   UNL     1     -43.704 -20.022 -20.202  0.00  0.00    +0.000 OA
ENDBRANCH   5   8
BRANCH   1  15
ATOM     14  C   UNL     1     -39.876 -21.402 -25.033  0.00  0.00    +0.000 C 
ATOM     15  C   UNL     1     -42.005 -21.284 -23.691  0.00  0.00    +0.000 C 
ATOM     16  N   UNL     1     -41.130 -20.754 -24.689  0.00  0.00    +0.000 NA
ATOM     17  O   UNL     1     -41.703 -22.342 -23.078  0.00  0.00    +0.000 OA
ENDBRANCH   1  15
BRANCH   3  18
ATOM     18  C   UNL     1     -43.820 -16.331 -25.661  0.00  0.00    +0.000 C 
BRANCH  18  19
ATOM     19  C   UNL     1     -44.951 -15.440 -25.162  0.00  0.00    +0.000 C 
BRANCH  19  20
ATOM     20  C   UNL     1     -45.559 -14.610 -26.251  0.00  0.00    +0.000 A 
ATOM     21  C   UNL     1     -45.140 -14.606 -27.568  0.00  0.00    +0.000 A 
ATOM     22  C   UNL     1     -46.001 -13.683 -28.129  0.00  0.00    +0.000 A 
ATOM     23  N   UNL     1     -46.859 -13.193 -27.214  0.00  0.00    +0.000 NA
ATOM     24  O   UNL     1     -46.561 -13.775 -26.093  0.00  0.00    +0.000 OA
BRANCH  22  26
ATOM     25  C   UNL     1     -46.506 -12.056 -29.900  0.00  0.00    +0.000 C 
ATOM     26  O   UNL     1     -45.982 -13.305 -29.470  0.00  0.00    +0.000 OA
ENDBRANCH  22  26
ENDBRANCH  19  20
ENDBRANCH  18  19
ENDBRANCH   3  18
TORSDOF 6
ENDMDL
MODEL 3
REMARK VINA RESULT:      -5.9      2.058      7.973
REMARK  Name = ZINC000169781247 ChemDiv-S640-0707 MolPort-044-356-519 PubChem-91923255
REMARK  6 active torsions:
REMARK  status: ('A' for Active; 'I' for Inactive)
REMARK    1  A    between atoms: C_2  and  C_3
REMARK    2  A    between atoms: C_5  and  C_6
REMARK    3  A    between atoms: C_6  and  C_7
REMARK    4  A    between atoms: C_7  and  C_8
REMARK    5  A    between atoms: C_10  and  O_24
REMARK    6  A    between atoms: C_13  and  C_14
REMARK                            x       y       z     vdW  Elec       q    Type
REMARK                         _______ _______ _______ _____ _____    ______ ____
ROOT
ATOM      1  C   UNL     1     -42.832 -20.500 -23.132  0.00  0.00    +0.000 C 
ATOM      2  C   UNL     1     -44.057 -20.344 -24.019  0.00  0.00    +0.000 C 
ATOM      3  C   UNL     1     -45.451 -18.359 -24.744  0.00  0.00    +0.000 C 
ATOM      4  C   UNL     1     -43.623 -18.189 -22.994  0.00  0.00    +0.000 C 
ATOM      5  C   UNL     1     -42.687 -19.196 -22.347  0.00  0.00    +0.000 C 
ATOM      6  N   UNL     1     -44.423 -18.945 -23.937  0.00  0.00    +0.000 N 
ATOM      7  O   UNL     1     -46.221 -19.096 -25.418  0.00  0.00    +0.000 OA
ENDROOT
BRANCH   5   8
ATOM      8  C   UNL     1     -43.072 -19.412 -20.919  0.00  0.00    +0.000 A 
ATOM      9  C   UNL     1     -43.047 -19.557 -18.844  0.00  0.00    +0.000 A 
ATOM     10  C   UNL     1     -42.617 -19.524 -17.422  0.00  0.00    +0.000 C 
ATOM     11  N   UNL     1     -42.235 -19.255 -19.874  0.00  0.00    +0.000 NA
ATOM     12  N   UNL     1     -44.295 -19.877 -19.236  0.00  0.00    +0.000 NA
ATOM     13  O   UNL     1     -44.269 -19.776 -20.531  0.00  0.00    +0.000 OA
ENDBRANCH   5   8
BRANCH   1  15
ATOM     14  C   UNL     1     -39.827 -22.305 -24.805  0.00  0.00    +0.000 C 
ATOM     15  C   UNL     1     -41.609 -20.740 -23.957  0.00  0.00    +0.000 C 
ATOM     16  N   UNL     1     -41.001 -22.033 -23.995  0.00  0.00    +0.000 NA
ATOM     17  O   UNL     1     -41.133 -19.793 -24.637  0.00  0.00    +0.000 OA
ENDBRANCH   1  15
BRANCH   3  18
ATOM     18  C   UNL     1     -45.613 -16.872 -24.809  0.00  0.00    +0.000 C 
BRANCH  18  19
ATOM     19  C   UNL     1     -44.680 -16.263 -25.849  0.00  0.00    +0.000 C 
BRANCH  19  20
ATOM     20  C   UNL     1     -45.291 -15.099 -26.566  0.00  0.00    +0.000 A 
ATOM     21  C   UNL     1     -46.103 -14.147 -25.978  0.00  0.00    +0.000 A 
ATOM     22  C   UNL     1     -46.398 -13.332 -27.053  0.00  0.00    +0.000 A 
ATOM     23  N   UNL     1     -45.800 -13.769 -28.178  0.00  0.00    +0.000 NA
ATOM     24  O   UNL     1     -45.142 -14.836 -27.844  0.00  0.00    +0.000 OA
BRANCH  22  26
ATOM     25  C   UNL     1     -46.725 -10.960 -26.501  0.00  0.00    +0.000 C 
ATOM     26  O   UNL     1     -47.213 -12.204 -26.984  0.00  0.00    +0.000 OA
ENDBRANCH  22  26
ENDBRANCH  19  20
ENDBRANCH  18  19
ENDBRANCH   3  18
TORSDOF 6
ENDMDL
