MODEL 1
REMARK VINA RESULT:      -5.7      0.000      0.000
REMARK  Name = ZINC000010299713 PubChem-124341967
REMARK  9 active torsions:
REMARK  status: ('A' for Active; 'I' for Inactive)
REMARK    1  A    between atoms: C_2  and  C_3
REMARK    2  A    between atoms: C_2  and  O_21
REMARK    3  A    between atoms: C_3  and  N_26
REMARK    4  A    between atoms: C_4  and  C_5
REMARK    5  A    between atoms: C_5  and  N_27
REMARK    6  A    between atoms: C_6  and  N_27
REMARK    7  A    between atoms: C_13  and  S_29
REMARK    8  A    between atoms: C_19  and  O_25
REMARK    9  A    between atoms: N_27  and  S_29
REMARK                            x       y       z     vdW  Elec       q    Type
REMARK                         _______ _______ _______ _____ _____    ______ ____
ROOT
ATOM      1  N   UNL     1     -43.980 -18.468 -23.746  0.00  0.00    +0.000 N 
ENDROOT
BRANCH   1   2
ATOM      2  C   UNL     1     -44.609 -17.921 -22.568  0.00  0.00    +0.000 A 
ATOM      3  C   UNL     1     -44.471 -16.563 -22.245  0.00  0.00    +0.000 A 
ATOM      4  C   UNL     1     -45.084 -16.035 -21.107  0.00  0.00    +0.000 A 
ATOM      5  C   UNL     1     -45.845 -16.858 -20.272  0.00  0.00    +0.000 A 
ATOM      6  C   UNL     1     -46.485 -16.263 -19.066  0.00  0.00    +0.000 C 
ATOM      7  C   UNL     1     -45.990 -18.221 -20.582  0.00  0.00    +0.000 A 
ATOM      8  C   UNL     1     -45.373 -18.741 -21.723  0.00  0.00    +0.000 A 
ATOM      9 CL   UNL     1     -46.932 -19.301 -19.567  0.00  0.00    +0.000 Cl
ENDBRANCH   1   2
BRANCH   1  12
ATOM     10  O   UNL     1     -45.540 -19.970 -25.266  0.00  0.00    +0.000 OA
ATOM     11  O   UNL     1     -45.885 -17.551 -25.364  0.00  0.00    +0.000 OA
ATOM     12  S   UNL     1     -44.850 -18.635 -25.244  0.00  0.00    +0.000 S 
BRANCH  12  13
ATOM     13  C   UNL     1     -43.735 -18.500 -26.601  0.00  0.00    +0.000 A 
ATOM     14  C   UNL     1     -43.396 -19.650 -27.323  0.00  0.00    +0.000 A 
ATOM     15  C   UNL     1     -42.504 -19.573 -28.394  0.00  0.00    +0.000 A 
ATOM     16  C   UNL     1     -42.148 -20.799 -29.154  0.00  0.00    +0.000 C 
ATOM     17  C   UNL     1     -41.945 -18.344 -28.751  0.00  0.00    +0.000 A 
ATOM     18  C   UNL     1     -42.280 -17.192 -28.036  0.00  0.00    +0.000 A 
ATOM     19  C   UNL     1     -43.176 -17.258 -26.957  0.00  0.00    +0.000 A 
BRANCH  19  21
ATOM     20  C   UNL     1     -43.804 -14.865 -26.855  0.00  0.00    +0.000 C 
ATOM     21  O   UNL     1     -43.520 -16.110 -26.233  0.00  0.00    +0.000 OA
ENDBRANCH  19  21
ENDBRANCH  12  13
ENDBRANCH   1  12
BRANCH   1  22
ATOM     22  C   UNL     1     -42.574 -18.858 -23.722  0.00  0.00    +0.000 C 
BRANCH  22  23
ATOM     23  C   UNL     1     -42.392 -20.069 -22.873  0.00  0.00    +0.000 C 
ATOM     24  O   UNL     1     -42.979 -21.140 -23.181  0.00  0.00    +0.000 OA
ATOM     25  N   UNL     1     -41.581 -19.995 -21.701  0.00  0.00    +0.000 NA
BRANCH  25  26
ATOM     26  C   UNL     1     -41.388 -21.138 -20.824  0.00  0.00    +0.000 C 
BRANCH  26  27
ATOM     27  C   UNL     1     -41.872 -20.800 -19.426  0.00  0.00    +0.000 C 
BRANCH  27  29
ATOM     28  C   UNL     1     -43.294 -19.447 -18.421  0.00  0.00    +0.000 C 
ATOM     29  O   UNL     1     -43.192 -20.352 -19.476  0.00  0.00    +0.000 OA
ENDBRANCH  27  29
ENDBRANCH  26  27
ENDBRANCH  25  26
ENDBRANCH  22  23
ENDBRANCH   1  22
TORSDOF 9
ENDMDL
MODEL 2
REMARK VINA RESULT:      -5.7     11.013     14.393
REMARK  Name = ZINC000010299713 PubChem-124341967
REMARK  9 active torsions:
REMARK  status: ('A' for Active; 'I' for Inactive)
REMARK    1  A    between atoms: C_2  and  C_3
REMARK    2  A    between atoms: C_2  and  O_21
REMARK    3  A    between atoms: C_3  and  N_26
REMARK    4  A    between atoms: C_4  and  C_5
REMARK    5  A    between atoms: C_5  and  N_27
REMARK    6  A    between atoms: C_6  and  N_27
REMARK    7  A    between atoms: C_13  and  S_29
REMARK    8  A    between atoms: C_19  and  O_25
REMARK    9  A    between atoms: N_27  and  S_29
REMARK                            x       y       z     vdW  Elec       q    Type
REMARK                         _______ _______ _______ _____ _____    ______ ____
ROOT
ATOM      1  N   UNL     1     -46.268  -6.369 -29.692  0.00  0.00    +0.000 N 
ENDROOT
BRANCH   1   2
ATOM      2  C   UNL     1     -46.572  -5.686 -28.458  0.00  0.00    +0.000 A 
ATOM      3  C   UNL     1     -47.271  -4.470 -28.464  0.00  0.00    +0.000 A 
ATOM      4  C   UNL     1     -47.568  -3.813 -27.267  0.00  0.00    +0.000 A 
ATOM      5  C   UNL     1     -47.169  -4.362 -26.046  0.00  0.00    +0.000 A 
ATOM      6  C   UNL     1     -47.502  -3.636 -24.789  0.00  0.00    +0.000 C 
ATOM      7  C   UNL     1     -46.467  -5.579 -26.025  0.00  0.00    +0.000 A 
ATOM      8  C   UNL     1     -46.174  -6.230 -27.227  0.00  0.00    +0.000 A 
ATOM      9 CL   UNL     1     -45.940  -6.313 -24.519  0.00  0.00    +0.000 Cl
ENDBRANCH   1   2
BRANCH   1  12
ATOM     10  O   UNL     1     -43.740  -5.591 -29.708  0.00  0.00    +0.000 OA
ATOM     11  O   UNL     1     -44.441  -7.136 -31.469  0.00  0.00    +0.000 OA
ATOM     12  S   UNL     1     -44.864  -5.959 -30.635  0.00  0.00    +0.000 S 
BRANCH  12  13
ATOM     13  C   UNL     1     -45.237  -4.615 -31.710  0.00  0.00    +0.000 A 
ATOM     14  C   UNL     1     -44.741  -3.341 -31.408  0.00  0.00    +0.000 A 
ATOM     15  C   UNL     1     -45.033  -2.255 -32.235  0.00  0.00    +0.000 A 
ATOM     16  C   UNL     1     -44.503  -0.907 -31.906  0.00  0.00    +0.000 C 
ATOM     17  C   UNL     1     -45.825  -2.437 -33.371  0.00  0.00    +0.000 A 
ATOM     18  C   UNL     1     -46.323  -3.704 -33.679  0.00  0.00    +0.000 A 
ATOM     19  C   UNL     1     -46.035  -4.803 -32.854  0.00  0.00    +0.000 A 
BRANCH  19  21
ATOM     20  C   UNL     1     -46.228  -6.756 -34.365  0.00  0.00    +0.000 C 
ATOM     21  O   UNL     1     -46.528  -6.079 -33.153  0.00  0.00    +0.000 OA
ENDBRANCH  19  21
ENDBRANCH  12  13
ENDBRANCH   1  12
BRANCH   1  22
ATOM     22  C   UNL     1     -47.115  -7.461 -30.162  0.00  0.00    +0.000 C 
BRANCH  22  23
ATOM     23  C   UNL     1     -46.899  -8.675 -29.324  0.00  0.00    +0.000 C 
ATOM     24  O   UNL     1     -47.755  -8.994 -28.456  0.00  0.00    +0.000 OA
ATOM     25  N   UNL     1     -45.709  -9.445 -29.490  0.00  0.00    +0.000 NA
BRANCH  25  26
ATOM     26  C   UNL     1     -45.435 -10.624 -28.685  0.00  0.00    +0.000 C 
BRANCH  26  27
ATOM     27  C   UNL     1     -45.722 -11.876 -29.493  0.00  0.00    +0.000 C 
BRANCH  27  29
ATOM     28  C   UNL     1     -47.112 -12.662 -27.972  0.00  0.00    +0.000 C 
ATOM     29  O   UNL     1     -47.048 -12.268 -29.307  0.00  0.00    +0.000 OA
ENDBRANCH  27  29
ENDBRANCH  26  27
ENDBRANCH  25  26
ENDBRANCH  22  23
ENDBRANCH   1  22
TORSDOF 9
ENDMDL
MODEL 3
REMARK VINA RESULT:      -5.4     13.703     16.786
REMARK  Name = ZINC000010299713 PubChem-124341967
REMARK  9 active torsions:
REMARK  status: ('A' for Active; 'I' for Inactive)
REMARK    1  A    between atoms: C_2  and  C_3
REMARK    2  A    between atoms: C_2  and  O_21
REMARK    3  A    between atoms: C_3  and  N_26
REMARK    4  A    between atoms: C_4  and  C_5
REMARK    5  A    between atoms: C_5  and  N_27
REMARK    6  A    between atoms: C_6  and  N_27
REMARK    7  A    between atoms: C_13  and  S_29
REMARK    8  A    between atoms: C_19  and  O_25
REMARK    9  A    between atoms: N_27  and  S_29
REMARK                            x       y       z     vdW  Elec       q    Type
REMARK                         _______ _______ _______ _____ _____    ______ ____
ROOT
ATOM      1  N   UNL     1     -45.386  -3.983 -32.521  0.00  0.00    +0.000 N 
ENDROOT
BRANCH   1   2
ATOM      2  C   UNL     1     -44.325  -3.018 -32.674  0.00  0.00    +0.000 A 
ATOM      3  C   UNL     1     -44.604  -1.643 -32.710  0.00  0.00    +0.000 A 
ATOM      4  C   UNL     1     -43.574  -0.711 -32.853  0.00  0.00    +0.000 A 
ATOM      5  C   UNL     1     -42.248  -1.138 -32.963  0.00  0.00    +0.000 A 
ATOM      6  C   UNL     1     -41.174  -0.117 -33.115  0.00  0.00    +0.000 C 
ATOM      7  C   UNL     1     -41.954  -2.512 -32.931  0.00  0.00    +0.000 A 
ATOM      8  C   UNL     1     -42.990  -3.439 -32.787  0.00  0.00    +0.000 A 
ATOM      9 CL   UNL     1     -40.307  -3.105 -33.068  0.00  0.00    +0.000 Cl
ENDBRANCH   1   2
BRANCH   1  12
ATOM     10  O   UNL     1     -46.511  -2.799 -30.441  0.00  0.00    +0.000 OA
ATOM     11  O   UNL     1     -47.553  -4.859 -31.248  0.00  0.00    +0.000 OA
ATOM     12  S   UNL     1     -46.242  -4.161 -31.017  0.00  0.00    +0.000 S 
BRANCH  12  13
ATOM     13  C   UNL     1     -45.285  -5.122 -29.894  0.00  0.00    +0.000 A 
ATOM     14  C   UNL     1     -43.981  -5.487 -30.246  0.00  0.00    +0.000 A 
ATOM     15  C   UNL     1     -43.205  -6.260 -29.380  0.00  0.00    +0.000 A 
ATOM     16  C   UNL     1     -41.822  -6.644 -29.764  0.00  0.00    +0.000 C 
ATOM     17  C   UNL     1     -43.730  -6.674 -28.155  0.00  0.00    +0.000 A 
ATOM     18  C   UNL     1     -45.031  -6.314 -27.795  0.00  0.00    +0.000 A 
ATOM     19  C   UNL     1     -45.819  -5.536 -28.659  0.00  0.00    +0.000 A 
BRANCH  19  21
ATOM     20  C   UNL     1     -47.410  -4.218 -27.293  0.00  0.00    +0.000 C 
ATOM     21  O   UNL     1     -47.124  -5.168 -28.309  0.00  0.00    +0.000 OA
ENDBRANCH  19  21
ENDBRANCH  12  13
ENDBRANCH   1  12
BRANCH   1  22
ATOM     22  C   UNL     1     -45.801  -4.812 -33.649  0.00  0.00    +0.000 C 
BRANCH  22  23
ATOM     23  C   UNL     1     -45.397  -6.228 -33.421  0.00  0.00    +0.000 C 
ATOM     24  O   UNL     1     -44.179  -6.545 -33.472  0.00  0.00    +0.000 OA
ATOM     25  N   UNL     1     -46.396  -7.218 -33.179  0.00  0.00    +0.000 NA
BRANCH  25  26
ATOM     26  C   UNL     1     -46.062  -8.617 -32.973  0.00  0.00    +0.000 C 
BRANCH  26  27
ATOM     27  C   UNL     1     -46.740  -9.128 -31.715  0.00  0.00    +0.000 C 
BRANCH  27  29
ATOM     28  C   UNL     1     -47.756  -8.586 -29.834  0.00  0.00    +0.000 C 
ATOM     29  O   UNL     1     -46.873  -8.090 -30.792  0.00  0.00    +0.000 OA
ENDBRANCH  27  29
ENDBRANCH  26  27
ENDBRANCH  25  26
ENDBRANCH  22  23
ENDBRANCH   1  22
TORSDOF 9
ENDMDL
