MODEL 1
REMARK VINA RESULT:      -7.8      0.000      0.000
REMARK  Name = ZINC000223871494 PubChem-100324810
REMARK  5 active torsions:
REMARK  status: ('A' for Active; 'I' for Inactive)
REMARK    1  A    between atoms: C_9  and  C_10
REMARK    2  A    between atoms: C_11  and  C_13
REMARK    3  A    between atoms: C_11  and  N_22
REMARK    4  A    between atoms: C_16  and  S_29
REMARK    5  A    between atoms: N_21  and  S_30
REMARK                            x       y       z     vdW  Elec       q    Type
REMARK                         _______ _______ _______ _____ _____    ______ ____
ROOT
ATOM      1  C   UNL     1     -47.717  -1.535 -24.434  0.00  0.00    +0.000 C 
ATOM      2  C   UNL     1     -47.414  -2.801 -25.150  0.00  0.00    +0.000 A 
ATOM      3  C   UNL     1     -47.382  -2.822 -26.547  0.00  0.00    +0.000 A 
ATOM      4  C   UNL     1     -47.103  -4.013 -27.221  0.00  0.00    +0.000 A 
ATOM      5  C   UNL     1     -46.833  -5.188 -26.497  0.00  0.00    +0.000 A 
ATOM      6  C   UNL     1     -46.874  -5.161 -25.096  0.00  0.00    +0.000 A 
ATOM      7  C   UNL     1     -47.164  -3.970 -24.425  0.00  0.00    +0.000 A 
ATOM      8  C   UNL     1     -46.137  -6.283 -28.633  0.00  0.00    +0.000 C 
ATOM      9  C   UNL     1     -47.054  -5.283 -29.334  0.00  0.00    +0.000 C 
ATOM     10  N   UNL     1     -46.506  -6.388 -27.222  0.00  0.00    +0.000 N 
ATOM     11  O   UNL     1     -47.086  -4.044 -28.619  0.00  0.00    +0.000 OA
ENDROOT
BRANCH  10  15
ATOM     12  C   UNL     1     -44.996  -8.397 -25.830  0.00  0.00    +0.000 C 
ATOM     13  O   UNL     1     -47.583  -7.937 -25.358  0.00  0.00    +0.000 OA
ATOM     14  O   UNL     1     -47.023  -8.973 -27.503  0.00  0.00    +0.000 OA
ATOM     15  S   UNL     1     -46.589  -7.957 -26.485  0.00  0.00    +0.000 S 
ENDBRANCH  10  15
BRANCH   9  16
ATOM     16  C   UNL     1     -46.622  -5.078 -30.749  0.00  0.00    +0.000 C 
ATOM     17  N   UNL     1     -45.967  -3.859 -31.111  0.00  0.00    +0.000 NA
ATOM     18  O   UNL     1     -46.838  -5.967 -31.618  0.00  0.00    +0.000 OA
BRANCH  17  19
ATOM     19  C   UNL     1     -45.549  -3.563 -32.475  0.00  0.00    +0.000 C 
ATOM     20  C   UNL     1     -46.641  -2.798 -33.207  0.00  0.00    +0.000 C 
BRANCH  19  21
ATOM     21  C   UNL     1     -44.274  -2.782 -32.464  0.00  0.00    +0.000 A 
ATOM     22  C   UNL     1     -44.323  -1.395 -32.291  0.00  0.00    +0.000 A 
ATOM     23  C   UNL     1     -43.144  -0.646 -32.283  0.00  0.00    +0.000 A 
ATOM     24  C   UNL     1     -41.907  -1.279 -32.449  0.00  0.00    +0.000 A 
ATOM     25  C   UNL     1     -41.855  -2.665 -32.628  0.00  0.00    +0.000 A 
ATOM     26  C   UNL     1     -43.034  -3.417 -32.636  0.00  0.00    +0.000 A 
BRANCH  24  30
ATOM     27  C   UNL     1     -39.032  -1.418 -32.637  0.00  0.00    +0.000 C 
ATOM     28  O   UNL     1     -40.309   0.421 -31.159  0.00  0.00    +0.000 OA
ATOM     29  O   UNL     1     -40.456   0.647 -33.588  0.00  0.00    +0.000 OA
ATOM     30  S   UNL     1     -40.429  -0.335 -32.451  0.00  0.00    +0.000 S 
ENDBRANCH  24  30
ENDBRANCH  19  21
ENDBRANCH  17  19
ENDBRANCH   9  16
TORSDOF 5
ENDMDL
MODEL 2
REMARK VINA RESULT:      -6.9      2.346      2.886
REMARK  Name = ZINC000223871494 PubChem-100324810
REMARK  5 active torsions:
REMARK  status: ('A' for Active; 'I' for Inactive)
REMARK    1  A    between atoms: C_9  and  C_10
REMARK    2  A    between atoms: C_11  and  C_13
REMARK    3  A    between atoms: C_11  and  N_22
REMARK    4  A    between atoms: C_16  and  S_29
REMARK    5  A    between atoms: N_21  and  S_30
REMARK                            x       y       z     vdW  Elec       q    Type
REMARK                         _______ _______ _______ _____ _____    ______ ____
ROOT
ATOM      1  C   UNL     1     -47.685  -2.291 -23.471  0.00  0.00    +0.000 C 
ATOM      2  C   UNL     1     -47.374  -3.303 -24.513  0.00  0.00    +0.000 A 
ATOM      3  C   UNL     1     -47.456  -2.959 -25.866  0.00  0.00    +0.000 A 
ATOM      4  C   UNL     1     -47.169  -3.912 -26.847  0.00  0.00    +0.000 A 
ATOM      5  C   UNL     1     -46.778  -5.211 -26.477  0.00  0.00    +0.000 A 
ATOM      6  C   UNL     1     -46.705  -5.551 -25.119  0.00  0.00    +0.000 A 
ATOM      7  C   UNL     1     -47.004  -4.599 -24.140  0.00  0.00    +0.000 A 
ATOM      8  C   UNL     1     -46.201  -5.662 -28.867  0.00  0.00    +0.000 C 
ATOM      9  C   UNL     1     -47.225  -4.584 -29.218  0.00  0.00    +0.000 C 
ATOM     10  N   UNL     1     -46.448  -6.155 -27.513  0.00  0.00    +0.000 N 
ATOM     11  O   UNL     1     -47.264  -3.578 -28.202  0.00  0.00    +0.000 OA
ENDROOT
BRANCH  10  15
ATOM     12  C   UNL     1     -46.828  -8.749 -28.688  0.00  0.00    +0.000 C 
ATOM     13  O   UNL     1     -44.992  -8.259 -26.812  0.00  0.00    +0.000 OA
ATOM     14  O   UNL     1     -47.333  -8.216 -26.100  0.00  0.00    +0.000 OA
ATOM     15  S   UNL     1     -46.386  -7.863 -27.211  0.00  0.00    +0.000 S 
ENDBRANCH  10  15
BRANCH   9  16
ATOM     16  C   UNL     1     -46.921  -3.989 -30.554  0.00  0.00    +0.000 C 
ATOM     17  N   UNL     1     -45.832  -3.070 -30.679  0.00  0.00    +0.000 NA
ATOM     18  O   UNL     1     -47.622  -4.286 -31.560  0.00  0.00    +0.000 OA
BRANCH  17  19
ATOM     19  C   UNL     1     -45.494  -2.414 -31.936  0.00  0.00    +0.000 C 
ATOM     20  C   UNL     1     -45.124  -0.960 -31.689  0.00  0.00    +0.000 C 
BRANCH  19  21
ATOM     21  C   UNL     1     -44.372  -3.139 -32.608  0.00  0.00    +0.000 A 
ATOM     22  C   UNL     1     -44.103  -4.465 -32.251  0.00  0.00    +0.000 A 
ATOM     23  C   UNL     1     -43.056  -5.158 -32.862  0.00  0.00    +0.000 A 
ATOM     24  C   UNL     1     -42.270  -4.531 -33.835  0.00  0.00    +0.000 A 
ATOM     25  C   UNL     1     -42.533  -3.204 -34.191  0.00  0.00    +0.000 A 
ATOM     26  C   UNL     1     -43.580  -2.508 -33.580  0.00  0.00    +0.000 A 
BRANCH  24  30
ATOM     27  C   UNL     1     -40.935  -5.059 -36.337  0.00  0.00    +0.000 C 
ATOM     28  O   UNL     1     -41.120  -6.876 -34.371  0.00  0.00    +0.000 OA
ATOM     29  O   UNL     1     -39.643  -4.966 -33.987  0.00  0.00    +0.000 OA
ATOM     30  S   UNL     1     -40.948  -5.400 -34.593  0.00  0.00    +0.000 S 
ENDBRANCH  24  30
ENDBRANCH  19  21
ENDBRANCH  17  19
ENDBRANCH   9  16
TORSDOF 5
ENDMDL
MODEL 3
REMARK VINA RESULT:      -6.2      2.695      3.100
REMARK  Name = ZINC000223871494 PubChem-100324810
REMARK  5 active torsions:
REMARK  status: ('A' for Active; 'I' for Inactive)
REMARK    1  A    between atoms: C_9  and  C_10
REMARK    2  A    between atoms: C_11  and  C_13
REMARK    3  A    between atoms: C_11  and  N_22
REMARK    4  A    between atoms: C_16  and  S_29
REMARK    5  A    between atoms: N_21  and  S_30
REMARK                            x       y       z     vdW  Elec       q    Type
REMARK                         _______ _______ _______ _____ _____    ______ ____
ROOT
ATOM      1  C   UNL     1     -47.463  -2.381 -25.705  0.00  0.00    +0.000 C 
ATOM      2  C   UNL     1     -47.197  -3.737 -26.252  0.00  0.00    +0.000 A 
ATOM      3  C   UNL     1     -47.346  -3.979 -27.621  0.00  0.00    +0.000 A 
ATOM      4  C   UNL     1     -47.101  -5.254 -28.136  0.00  0.00    +0.000 A 
ATOM      5  C   UNL     1     -46.684  -6.291 -27.283  0.00  0.00    +0.000 A 
ATOM      6  C   UNL     1     -46.543  -6.044 -25.910  0.00  0.00    +0.000 A 
ATOM      7  C   UNL     1     -46.800  -4.769 -25.397  0.00  0.00    +0.000 A 
ATOM      8  C   UNL     1     -46.221  -7.693 -29.299  0.00  0.00    +0.000 C 
ATOM      9  C   UNL     1     -47.267  -6.841 -30.015  0.00  0.00    +0.000 C 
ATOM     10  N   UNL     1     -46.398  -7.582 -27.852  0.00  0.00    +0.000 N 
ATOM     11  O   UNL     1     -47.264  -5.506 -29.501  0.00  0.00    +0.000 OA
ENDROOT
BRANCH  10  15
ATOM     12  C   UNL     1     -44.885  -8.934 -25.818  0.00  0.00    +0.000 C 
ATOM     13  O   UNL     1     -47.541  -9.125 -26.022  0.00  0.00    +0.000 OA
ATOM     14  O   UNL     1     -46.220 -10.226 -27.764  0.00  0.00    +0.000 OA
ATOM     15  S   UNL     1     -46.310  -9.016 -26.878  0.00  0.00    +0.000 S 
ENDBRANCH  10  15
BRANCH   9  16
ATOM     16  C   UNL     1     -47.033  -6.853 -31.490  0.00  0.00    +0.000 C 
ATOM     17  N   UNL     1     -46.699  -5.631 -32.154  0.00  0.00    +0.000 NA
ATOM     18  O   UNL     1     -47.136  -7.926 -32.145  0.00  0.00    +0.000 OA
BRANCH  17  19
ATOM     19  C   UNL     1     -46.494  -5.546 -33.594  0.00  0.00    +0.000 C 
ATOM     20  C   UNL     1     -47.221  -4.337 -34.161  0.00  0.00    +0.000 C 
BRANCH  19  21
ATOM     21  C   UNL     1     -45.033  -5.478 -33.903  0.00  0.00    +0.000 A 
ATOM     22  C   UNL     1     -44.310  -4.337 -33.536  0.00  0.00    +0.000 A 
ATOM     23  C   UNL     1     -42.945  -4.250 -33.820  0.00  0.00    +0.000 A 
ATOM     24  C   UNL     1     -42.293  -5.303 -34.472  0.00  0.00    +0.000 A 
ATOM     25  C   UNL     1     -43.014  -6.442 -34.844  0.00  0.00    +0.000 A 
ATOM     26  C   UNL     1     -44.380  -6.531 -34.561  0.00  0.00    +0.000 A 
BRANCH  24  30
ATOM     27  C   UNL     1     -39.823  -3.992 -33.762  0.00  0.00    +0.000 C 
ATOM     28  O   UNL     1     -40.398  -4.763 -36.267  0.00  0.00    +0.000 OA
ATOM     29  O   UNL     1     -39.928  -6.525 -34.639  0.00  0.00    +0.000 OA
ATOM     30  S   UNL     1     -40.582  -5.186 -34.837  0.00  0.00    +0.000 S 
ENDBRANCH  24  30
ENDBRANCH  19  21
ENDBRANCH  17  19
ENDBRANCH   9  16
TORSDOF 5
ENDMDL
