MODEL 1
REMARK VINA RESULT:      -6.9      0.000      0.000
REMARK  Name = ZINC000012772569 CSC027018696 MCULE-2308435649 MolPort-005-665-378
REMARK  4 active torsions:
REMARK  status: ('A' for Active; 'I' for Inactive)
REMARK    1  A    between atoms: C_2  and  O_23
REMARK    2  A    between atoms: C_3  and  N_28
REMARK    3  A    between atoms: C_4  and  C_5
REMARK    4  A    between atoms: C_20  and  N_31
REMARK                            x       y       z     vdW  Elec       q    Type
REMARK                         _______ _______ _______ _____ _____    ______ ____
ROOT
ATOM      1  C   UNL     1     -46.292  -5.736 -28.895  0.00  0.00    +0.000 A 
ATOM      2  C   UNL     1     -46.905  -6.972 -28.644  0.00  0.00    +0.000 A 
ATOM      3  C   UNL     1     -46.135  -8.128 -28.498  0.00  0.00    +0.000 A 
ATOM      4  C   UNL     1     -44.735  -8.060 -28.614  0.00  0.00    +0.000 A 
ATOM      5  C   UNL     1     -43.996  -9.242 -28.464  0.00  0.00    +0.000 A 
ATOM      6  C   UNL     1     -46.010 -10.455 -28.097  0.00  0.00    +0.000 A 
ATOM      7  C   UNL     1     -46.742 -11.738 -27.831  0.00  0.00    +0.000 C 
ATOM      8  C   UNL     1     -47.065 -12.469 -29.128  0.00  0.00    +0.000 C 
ATOM      9  C   UNL     1     -45.894 -13.317 -29.607  0.00  0.00    +0.000 C 
ATOM     10  C   UNL     1     -44.854 -12.452 -30.303  0.00  0.00    +0.000 C 
ATOM     11  C   UNL     1     -43.595 -12.285 -29.453  0.00  0.00    +0.000 C 
ATOM     12  C   UNL     1     -43.874 -11.663 -28.084  0.00  0.00    +0.000 C 
ATOM     13  C   UNL     1     -44.120  -6.830 -28.879  0.00  0.00    +0.000 A 
ATOM     14  C   UNL     1     -44.896  -5.677 -29.023  0.00  0.00    +0.000 A 
ATOM     15  O   UNL     1     -42.737  -9.215 -28.564  0.00  0.00    +0.000 OA
ATOM     16  N   UNL     1     -44.643 -10.422 -28.210  0.00  0.00    +0.000 N 
ATOM     17  N   UNL     1     -46.735  -9.316 -28.246  0.00  0.00    +0.000 NA
ENDROOT
BRANCH   1  18
ATOM     18  C   UNL     1     -47.119  -4.523 -29.065  0.00  0.00    +0.000 C 
ATOM     19  O   UNL     1     -47.756  -4.068 -28.078  0.00  0.00    +0.000 OA
ATOM     20  N   UNL     1     -47.266  -3.873 -30.337  0.00  0.00    +0.000 NA
BRANCH  20  22
ATOM     21  C   UNL     1     -46.112  -4.632 -32.362  0.00  0.00    +0.000 A 
ATOM     22  C   UNL     1     -46.234  -3.703 -31.318  0.00  0.00    +0.000 A 
ATOM     23  C   UNL     1     -45.382  -2.588 -31.281  0.00  0.00    +0.000 A 
ATOM     24  C   UNL     1     -44.393  -2.405 -32.254  0.00  0.00    +0.000 A 
ATOM     25  C   UNL     1     -44.268  -3.346 -33.286  0.00  0.00    +0.000 A 
ATOM     26  C   UNL     1     -45.122  -4.449 -33.341  0.00  0.00    +0.000 A 
BRANCH  24  29
ATOM     27  O   UNL     1     -42.156  -1.445 -32.162  0.00  0.00    +0.000 OA
ATOM     28  O   UNL     1     -43.985  -0.111 -32.169  0.00  0.00    +0.000 OA
ATOM     29  N   UNL     1     -43.520  -1.269 -32.191  0.00  0.00    +0.000 N 
ENDBRANCH  24  29
BRANCH  21  31
ATOM     30  C   UNL     1     -46.521  -7.075 -32.418  0.00  0.00    +0.000 C 
ATOM     31  O   UNL     1     -46.980  -5.729 -32.409  0.00  0.00    +0.000 OA
ENDBRANCH  21  31
ENDBRANCH  20  22
ENDBRANCH   1  18
TORSDOF 4
ENDMDL
MODEL 2
REMARK VINA RESULT:      -6.6      9.559     13.847
REMARK  Name = ZINC000012772569 CSC027018696 MCULE-2308435649 MolPort-005-665-378
REMARK  4 active torsions:
REMARK  status: ('A' for Active; 'I' for Inactive)
REMARK    1  A    between atoms: C_2  and  O_23
REMARK    2  A    between atoms: C_3  and  N_28
REMARK    3  A    between atoms: C_4  and  C_5
REMARK    4  A    between atoms: C_20  and  N_31
REMARK                            x       y       z     vdW  Elec       q    Type
REMARK                         _______ _______ _______ _____ _____    ______ ____
ROOT
ATOM      1  C   UNL     1     -45.000 -18.757 -23.576  0.00  0.00    +0.000 A 
ATOM      2  C   UNL     1     -43.917 -19.535 -23.142  0.00  0.00    +0.000 A 
ATOM      3  C   UNL     1     -43.545 -19.545 -21.796  0.00  0.00    +0.000 A 
ATOM      4  C   UNL     1     -44.251 -18.761 -20.865  0.00  0.00    +0.000 A 
ATOM      5  C   UNL     1     -43.846 -18.794 -19.524  0.00  0.00    +0.000 A 
ATOM      6  C   UNL     1     -42.123 -20.337 -20.081  0.00  0.00    +0.000 A 
ATOM      7  C   UNL     1     -40.953 -21.196 -19.699  0.00  0.00    +0.000 C 
ATOM      8  C   UNL     1     -39.649 -20.408 -19.752  0.00  0.00    +0.000 C 
ATOM      9  C   UNL     1     -39.407 -19.627 -18.467  0.00  0.00    +0.000 C 
ATOM     10  C   UNL     1     -40.230 -18.348 -18.454  0.00  0.00    +0.000 C 
ATOM     11  C   UNL     1     -41.392 -18.431 -17.464  0.00  0.00    +0.000 C 
ATOM     12  C   UNL     1     -42.344 -19.591 -17.754  0.00  0.00    +0.000 C 
ATOM     13  C   UNL     1     -45.323 -17.971 -21.297  0.00  0.00    +0.000 A 
ATOM     14  C   UNL     1     -45.691 -17.967 -22.644  0.00  0.00    +0.000 A 
ATOM     15  O   UNL     1     -44.458 -18.100 -18.664  0.00  0.00    +0.000 OA
ATOM     16  N   UNL     1     -42.787 -19.579 -19.151  0.00  0.00    +0.000 N 
ATOM     17  N   UNL     1     -42.504 -20.307 -21.385  0.00  0.00    +0.000 NA
ENDROOT
BRANCH   1  18
ATOM     18  C   UNL     1     -45.372 -18.741 -25.005  0.00  0.00    +0.000 C 
ATOM     19  O   UNL     1     -46.191 -19.595 -25.439  0.00  0.00    +0.000 OA
ATOM     20  N   UNL     1     -44.789 -17.817 -25.935  0.00  0.00    +0.000 NA
BRANCH  20  22
ATOM     21  C   UNL     1     -43.167 -16.098 -25.280  0.00  0.00    +0.000 A 
ATOM     22  C   UNL     1     -44.471 -16.443 -25.668  0.00  0.00    +0.000 A 
ATOM     23  C   UNL     1     -45.431 -15.434 -25.846  0.00  0.00    +0.000 A 
ATOM     24  C   UNL     1     -45.114 -14.091 -25.612  0.00  0.00    +0.000 A 
ATOM     25  C   UNL     1     -43.814 -13.755 -25.211  0.00  0.00    +0.000 A 
ATOM     26  C   UNL     1     -42.848 -14.751 -25.048  0.00  0.00    +0.000 A 
BRANCH  24  29
ATOM     27  O   UNL     1     -46.970 -13.120 -26.857  0.00  0.00    +0.000 OA
ATOM     28  O   UNL     1     -46.217 -12.144 -24.957  0.00  0.00    +0.000 OA
ATOM     29  N   UNL     1     -46.111 -13.075 -25.782  0.00  0.00    +0.000 N 
ENDBRANCH  24  29
BRANCH  21  31
ATOM     30  C   UNL     1     -40.840 -16.831 -24.852  0.00  0.00    +0.000 C 
ATOM     31  O   UNL     1     -42.208 -17.106 -25.128  0.00  0.00    +0.000 OA
ENDBRANCH  21  31
ENDBRANCH  20  22
ENDBRANCH   1  18
TORSDOF 4
ENDMDL
MODEL 3
REMARK VINA RESULT:      -6.6      1.612      2.982
REMARK  Name = ZINC000012772569 CSC027018696 MCULE-2308435649 MolPort-005-665-378
REMARK  4 active torsions:
REMARK  status: ('A' for Active; 'I' for Inactive)
REMARK    1  A    between atoms: C_2  and  O_23
REMARK    2  A    between atoms: C_3  and  N_28
REMARK    3  A    between atoms: C_4  and  C_5
REMARK    4  A    between atoms: C_20  and  N_31
REMARK                            x       y       z     vdW  Elec       q    Type
REMARK                         _______ _______ _______ _____ _____    ______ ____
ROOT
ATOM      1  C   UNL     1     -46.355  -5.851 -28.568  0.00  0.00    +0.000 A 
ATOM      2  C   UNL     1     -46.982  -7.102 -28.481  0.00  0.00    +0.000 A 
ATOM      3  C   UNL     1     -46.230  -8.257 -28.258  0.00  0.00    +0.000 A 
ATOM      4  C   UNL     1     -44.832  -8.173 -28.129  0.00  0.00    +0.000 A 
ATOM      5  C   UNL     1     -44.111  -9.355 -27.908  0.00  0.00    +0.000 A 
ATOM      6  C   UNL     1     -46.138 -10.600 -27.945  0.00  0.00    +0.000 A 
ATOM      7  C   UNL     1     -46.884 -11.899 -27.865  0.00  0.00    +0.000 C 
ATOM      8  C   UNL     1     -46.971 -12.571 -29.230  0.00  0.00    +0.000 C 
ATOM      9  C   UNL     1     -45.722 -13.386 -29.539  0.00  0.00    +0.000 C 
ATOM     10  C   UNL     1     -44.592 -12.482 -30.007  0.00  0.00    +0.000 C 
ATOM     11  C   UNL     1     -43.499 -12.345 -28.949  0.00  0.00    +0.000 C 
ATOM     12  C   UNL     1     -44.017 -11.790 -27.621  0.00  0.00    +0.000 C 
ATOM     13  C   UNL     1     -44.200  -6.927 -28.230  0.00  0.00    +0.000 A 
ATOM     14  C   UNL     1     -44.958  -5.775 -28.453  0.00  0.00    +0.000 A 
ATOM     15  O   UNL     1     -42.853  -9.313 -27.790  0.00  0.00    +0.000 OA
ATOM     16  N   UNL     1     -44.772 -10.551 -27.822  0.00  0.00    +0.000 N 
ATOM     17  N   UNL     1     -46.845  -9.460 -28.165  0.00  0.00    +0.000 NA
ENDROOT
BRANCH   1  18
ATOM     18  C   UNL     1     -47.159  -4.638 -28.823  0.00  0.00    +0.000 C 
ATOM     19  O   UNL     1     -47.448  -3.876 -27.862  0.00  0.00    +0.000 OA
ATOM     20  N   UNL     1     -47.673  -4.324 -30.126  0.00  0.00    +0.000 NA
BRANCH  20  22
ATOM     21  C   UNL     1     -46.239  -3.480 -31.927  0.00  0.00    +0.000 A 
ATOM     22  C   UNL     1     -46.990  -4.527 -31.371  0.00  0.00    +0.000 A 
ATOM     23  C   UNL     1     -47.015  -5.776 -32.011  0.00  0.00    +0.000 A 
ATOM     24  C   UNL     1     -46.326  -5.984 -33.211  0.00  0.00    +0.000 A 
ATOM     25  C   UNL     1     -45.590  -4.929 -33.768  0.00  0.00    +0.000 A 
ATOM     26  C   UNL     1     -45.545  -3.688 -33.129  0.00  0.00    +0.000 A 
BRANCH  24  29
ATOM     27  O   UNL     1     -46.830  -8.368 -33.178  0.00  0.00    +0.000 OA
ATOM     28  O   UNL     1     -46.016  -7.385 -35.048  0.00  0.00    +0.000 OA
ATOM     29  N   UNL     1     -46.376  -7.262 -33.859  0.00  0.00    +0.000 N 
ENDBRANCH  24  29
BRANCH  21  31
ATOM     30  C   UNL     1     -45.071  -1.378 -31.332  0.00  0.00    +0.000 C 
ATOM     31  O   UNL     1     -46.197  -2.243 -31.272  0.00  0.00    +0.000 OA
ENDBRANCH  21  31
ENDBRANCH  20  22
ENDBRANCH   1  18
TORSDOF 4
ENDMDL
