MODEL 1
REMARK VINA RESULT:      -7.3      0.000      0.000
REMARK  Name = ZINC000096181338 ZINC96181338 PubChem-97457210
REMARK  4 active torsions:
REMARK  status: ('A' for Active; 'I' for Inactive)
REMARK    1  A    between atoms: C_5  and  C_8
REMARK    2  A    between atoms: C_9  and  C_13
REMARK    3  A    between atoms: C_14  and  C_15
REMARK    4  A    between atoms: C_14  and  N_23
REMARK                            x       y       z     vdW  Elec       q    Type
REMARK                         _______ _______ _______ _____ _____    ______ ____
ROOT
ATOM      1  C   UNL     1     -47.016  -5.796 -26.483  0.00  0.00    +0.000 C 
ATOM      2  C   UNL     1     -45.939  -5.510 -27.546  0.00  0.00    +0.000 C 
ATOM      3  C   UNL     1     -44.947  -6.680 -27.534  0.00  0.00    +0.000 C 
ATOM      4  C   UNL     1     -45.456  -7.543 -26.450  0.00  0.00    +0.000 C 
ATOM      5  C   UNL     1     -47.465  -7.783 -24.924  0.00  0.00    +0.000 C 
ATOM      6  O   UNL     1     -44.924  -8.634 -26.117  0.00  0.00    +0.000 OA
ATOM      7  N   UNL     1     -46.616  -7.030 -25.832  0.00  0.00    +0.000 N 
ENDROOT
BRANCH   1  12
ATOM      8  C   UNL     1     -47.363  -1.394 -22.746  0.00  0.00    +0.000 C 
ATOM      9  C   UNL     1     -47.275  -2.530 -23.700  0.00  0.00    +0.000 A 
ATOM     10  C   UNL     1     -47.066  -3.827 -23.223  0.00  0.00    +0.000 A 
ATOM     11  C   UNL     1     -46.982  -4.896 -24.120  0.00  0.00    +0.000 A 
ATOM     12  C   UNL     1     -47.109  -4.670 -25.500  0.00  0.00    +0.000 A 
ATOM     13  C   UNL     1     -47.315  -3.369 -25.971  0.00  0.00    +0.000 A 
ATOM     14  C   UNL     1     -47.398  -2.301 -25.073  0.00  0.00    +0.000 A 
ENDBRANCH   1  12
BRANCH   2  15
ATOM     15  C   UNL     1     -46.560  -5.357 -28.894  0.00  0.00    +0.000 C 
ATOM     16  O   UNL     1     -47.072  -6.362 -29.456  0.00  0.00    +0.000 OA
ATOM     17  N   UNL     1     -46.569  -4.082 -29.542  0.00  0.00    +0.000 NA
BRANCH  17  18
ATOM     18  C   UNL     1     -47.158  -3.890 -30.857  0.00  0.00    +0.000 C 
BRANCH  18  19
ATOM     19  C   UNL     1     -46.259  -3.046 -31.689  0.00  0.00    +0.000 A 
ATOM     20  C   UNL     1     -45.345  -2.179 -31.085  0.00  0.00    +0.000 A 
ATOM     21  C   UNL     1     -44.489  -1.411 -31.877  0.00  0.00    +0.000 A 
ATOM     22  C   UNL     1     -44.559  -1.527 -33.267  0.00  0.00    +0.000 A 
ATOM     23  C   UNL     1     -46.292  -3.140 -33.083  0.00  0.00    +0.000 A 
ATOM     24  N   UNL     1     -45.450  -2.383 -33.837  0.00  0.00    +0.000 NA
ENDBRANCH  18  19
ENDBRANCH  17  18
ENDBRANCH   2  15
TORSDOF 4
ENDMDL
MODEL 2
REMARK VINA RESULT:      -6.7      2.228      2.918
REMARK  Name = ZINC000096181338 ZINC96181338 PubChem-97457210
REMARK  4 active torsions:
REMARK  status: ('A' for Active; 'I' for Inactive)
REMARK    1  A    between atoms: C_5  and  C_8
REMARK    2  A    between atoms: C_9  and  C_13
REMARK    3  A    between atoms: C_14  and  C_15
REMARK    4  A    between atoms: C_14  and  N_23
REMARK                            x       y       z     vdW  Elec       q    Type
REMARK                         _______ _______ _______ _____ _____    ______ ____
ROOT
ATOM      1  C   UNL     1     -46.366  -6.020 -29.081  0.00  0.00    +0.000 C 
ATOM      2  C   UNL     1     -45.009  -5.528 -29.618  0.00  0.00    +0.000 C 
ATOM      3  C   UNL     1     -44.173  -6.764 -29.976  0.00  0.00    +0.000 C 
ATOM      4  C   UNL     1     -45.047  -7.887 -29.587  0.00  0.00    +0.000 C 
ATOM      5  C   UNL     1     -47.421  -8.344 -28.826  0.00  0.00    +0.000 C 
ATOM      6  O   UNL     1     -44.734  -9.099 -29.729  0.00  0.00    +0.000 OA
ATOM      7  N   UNL     1     -46.283  -7.468 -29.052  0.00  0.00    +0.000 N 
ENDROOT
BRANCH   1  12
ATOM      8  C   UNL     1     -47.408  -3.802 -23.840  0.00  0.00    +0.000 C 
ATOM      9  C   UNL     1     -47.139  -4.379 -25.182  0.00  0.00    +0.000 A 
ATOM     10  C   UNL     1     -46.505  -5.620 -25.295  0.00  0.00    +0.000 A 
ATOM     11  C   UNL     1     -46.251  -6.162 -26.558  0.00  0.00    +0.000 A 
ATOM     12  C   UNL     1     -46.633  -5.465 -27.715  0.00  0.00    +0.000 A 
ATOM     13  C   UNL     1     -47.264  -4.221 -27.596  0.00  0.00    +0.000 A 
ATOM     14  C   UNL     1     -47.517  -3.680 -26.332  0.00  0.00    +0.000 A 
ENDBRANCH   1  12
BRANCH   2  15
ATOM     15  C   UNL     1     -45.202  -4.656 -30.813  0.00  0.00    +0.000 C 
ATOM     16  O   UNL     1     -45.994  -3.677 -30.742  0.00  0.00    +0.000 OA
ATOM     17  N   UNL     1     -44.498  -4.931 -32.026  0.00  0.00    +0.000 NA
BRANCH  17  18
ATOM     18  C   UNL     1     -44.661  -4.110 -33.215  0.00  0.00    +0.000 C 
BRANCH  18  19
ATOM     19  C   UNL     1     -43.788  -2.909 -33.117  0.00  0.00    +0.000 A 
ATOM     20  C   UNL     1     -44.324  -1.630 -33.286  0.00  0.00    +0.000 A 
ATOM     21  C   UNL     1     -43.499  -0.511 -33.166  0.00  0.00    +0.000 A 
ATOM     22  C   UNL     1     -42.145  -0.689 -32.872  0.00  0.00    +0.000 A 
ATOM     23  C   UNL     1     -42.430  -3.045 -32.814  0.00  0.00    +0.000 A 
ATOM     24  N   UNL     1     -41.643  -1.942 -32.702  0.00  0.00    +0.000 NA
ENDBRANCH  18  19
ENDBRANCH  17  18
ENDBRANCH   2  15
TORSDOF 4
ENDMDL
MODEL 3
REMARK VINA RESULT:      -6.6      3.504      7.831
REMARK  Name = ZINC000096181338 ZINC96181338 PubChem-97457210
REMARK  4 active torsions:
REMARK  status: ('A' for Active; 'I' for Inactive)
REMARK    1  A    between atoms: C_5  and  C_8
REMARK    2  A    between atoms: C_9  and  C_13
REMARK    3  A    between atoms: C_14  and  C_15
REMARK    4  A    between atoms: C_14  and  N_23
REMARK                            x       y       z     vdW  Elec       q    Type
REMARK                         _______ _______ _______ _____ _____    ______ ____
ROOT
ATOM      1  C   UNL     1     -44.970  -4.154 -32.348  0.00  0.00    +0.000 C 
ATOM      2  C   UNL     1     -46.338  -3.603 -31.903  0.00  0.00    +0.000 C 
ATOM      3  C   UNL     1     -47.382  -4.057 -32.932  0.00  0.00    +0.000 C 
ATOM      4  C   UNL     1     -46.576  -4.788 -33.930  0.00  0.00    +0.000 C 
ATOM      5  C   UNL     1     -44.227  -5.675 -34.275  0.00  0.00    +0.000 C 
ATOM      6  O   UNL     1     -47.062  -5.341 -34.951  0.00  0.00    +0.000 OA
ATOM      7  N   UNL     1     -45.201  -4.821 -33.615  0.00  0.00    +0.000 N 
ENDROOT
BRANCH   1  12
ATOM      8  C   UNL     1     -41.056   0.075 -32.859  0.00  0.00    +0.000 C 
ATOM      9  C   UNL     1     -42.066  -1.007 -32.732  0.00  0.00    +0.000 A 
ATOM     10  C   UNL     1     -43.405  -0.751 -33.041  0.00  0.00    +0.000 A 
ATOM     11  C   UNL     1     -44.356  -1.768 -32.920  0.00  0.00    +0.000 A 
ATOM     12  C   UNL     1     -43.970  -3.048 -32.492  0.00  0.00    +0.000 A 
ATOM     13  C   UNL     1     -42.628  -3.297 -32.182  0.00  0.00    +0.000 A 
ATOM     14  C   UNL     1     -41.678  -2.279 -32.302  0.00  0.00    +0.000 A 
ENDBRANCH   1  12
BRANCH   2  15
ATOM     15  C   UNL     1     -46.687  -4.101 -30.541  0.00  0.00    +0.000 C 
ATOM     16  O   UNL     1     -47.756  -3.715 -29.997  0.00  0.00    +0.000 OA
ATOM     17  N   UNL     1     -45.813  -5.003 -29.859  0.00  0.00    +0.000 NA
BRANCH  17  18
ATOM     18  C   UNL     1     -46.111  -5.508 -28.529  0.00  0.00    +0.000 C 
BRANCH  18  19
ATOM     19  C   UNL     1     -46.246  -6.990 -28.576  0.00  0.00    +0.000 A 
ATOM     20  C   UNL     1     -45.393  -7.801 -27.824  0.00  0.00    +0.000 A 
ATOM     21  C   UNL     1     -45.547  -9.188 -27.857  0.00  0.00    +0.000 A 
ATOM     22  C   UNL     1     -46.561  -9.744 -28.641  0.00  0.00    +0.000 A 
ATOM     23  C   UNL     1     -47.254  -7.583 -29.341  0.00  0.00    +0.000 A 
ATOM     24  N   UNL     1     -47.387  -8.936 -29.360  0.00  0.00    +0.000 NA
ENDBRANCH  18  19
ENDBRANCH  17  18
ENDBRANCH   2  15
TORSDOF 4
ENDMDL
