MODEL 1
REMARK VINA RESULT:      -6.0      0.000      0.000
REMARK  Name = ZINC000225948475
REMARK  9 active torsions:
REMARK  status: ('A' for Active; 'I' for Inactive)
REMARK    1  A    between atoms: C_3  and  S_21
REMARK    2  A    between atoms: C_4  and  C_5
REMARK    3  A    between atoms: C_4  and  S_21
REMARK    4  A    between atoms: C_5  and  N_18
REMARK    5  A    between atoms: C_6  and  C_7
REMARK    6  A    between atoms: C_7  and  C_8
REMARK    7  A    between atoms: C_8  and  C_10
REMARK    8  A    between atoms: C_8  and  N_19
REMARK    9  A    between atoms: N_19  and  S_22
REMARK                            x       y       z     vdW  Elec       q    Type
REMARK                         _______ _______ _______ _____ _____    ______ ____
ROOT
ATOM      1  C   UNL     1     -45.914 -18.863 -23.057  0.00  0.00    +0.000 C 
ENDROOT
BRANCH   1   2
ATOM      2  C   UNL     1     -45.429 -18.614 -24.443  0.00  0.00    +0.000 C 
ATOM      3  N   UNL     1     -44.459 -17.593 -24.679  0.00  0.00    +0.000 NA
ATOM      4  O   UNL     1     -45.904 -19.282 -25.399  0.00  0.00    +0.000 OA
BRANCH   3   5
ATOM      5  C   UNL     1     -43.979 -17.282 -26.016  0.00  0.00    +0.000 C 
BRANCH   5   6
ATOM      6  C   UNL     1     -44.671 -16.036 -26.538  0.00  0.00    +0.000 C 
BRANCH   6   7
ATOM      7  S   UNL     1     -44.883 -14.810 -25.208  0.00  0.00    +0.000 S 
BRANCH   7  10
ATOM      8  C   UNL     1     -47.269 -12.536 -29.249  0.00  0.00    +0.000 C 
ATOM      9  C   UNL     1     -46.803 -12.836 -27.869  0.00  0.00    +0.000 A 
ATOM     10  C   UNL     1     -45.866 -13.722 -26.233  0.00  0.00    +0.000 A 
ATOM     11  N   UNL     1     -47.143 -12.105 -26.794  0.00  0.00    +0.000 NA
ATOM     12  N   UNL     1     -46.547 -12.666 -25.756  0.00  0.00    +0.000 NA
ATOM     13  N   UNL     1     -45.995 -13.869 -27.566  0.00  0.00    +0.000 NA
ENDBRANCH   7  10
ENDBRANCH   6   7
ENDBRANCH   5   6
ENDBRANCH   3   5
ENDBRANCH   1   2
BRANCH   1  14
ATOM     14  C   UNL     1     -44.900 -18.361 -22.036  0.00  0.00    +0.000 C 
BRANCH  14  15
ATOM     15  C   UNL     1     -45.524 -17.347 -21.129  0.00  0.00    +0.000 A 
ATOM     16  C   UNL     1     -46.041 -17.711 -19.877  0.00  0.00    +0.000 A 
ATOM     17  C   UNL     1     -46.612 -16.745 -19.044  0.00  0.00    +0.000 A 
ATOM     18  C   UNL     1     -46.667 -15.411 -19.459  0.00  0.00    +0.000 A 
ATOM     19  C   UNL     1     -46.153 -15.043 -20.705  0.00  0.00    +0.000 A 
ATOM     20  C   UNL     1     -45.581 -16.009 -21.538  0.00  0.00    +0.000 A 
ATOM     21 CL   UNL     1     -47.382 -14.201 -18.416  0.00  0.00    +0.000 Cl
ENDBRANCH  14  15
BRANCH  14  22
ATOM     22  N   UNL     1     -44.373 -19.476 -21.260  0.00  0.00    +0.000 NA
BRANCH  22  24
ATOM     23  C   UNL     1     -41.701 -20.038 -20.342  0.00  0.00    +0.000 C 
ATOM     24  S   UNL     1     -42.737 -19.752 -21.759  0.00  0.00    +0.000 S 
ATOM     25  O   UNL     1     -42.675 -20.943 -22.674  0.00  0.00    +0.000 OA
ATOM     26  O   UNL     1     -42.237 -18.540 -22.493  0.00  0.00    +0.000 OA
ENDBRANCH  22  24
ENDBRANCH  14  22
ENDBRANCH   1  14
TORSDOF 9
ENDMDL
MODEL 2
REMARK VINA RESULT:      -5.7      9.806     13.063
REMARK  Name = ZINC000225948475
REMARK  9 active torsions:
REMARK  status: ('A' for Active; 'I' for Inactive)
REMARK    1  A    between atoms: C_3  and  S_21
REMARK    2  A    between atoms: C_4  and  C_5
REMARK    3  A    between atoms: C_4  and  S_21
REMARK    4  A    between atoms: C_5  and  N_18
REMARK    5  A    between atoms: C_6  and  C_7
REMARK    6  A    between atoms: C_7  and  C_8
REMARK    7  A    between atoms: C_8  and  C_10
REMARK    8  A    between atoms: C_8  and  N_19
REMARK    9  A    between atoms: N_19  and  S_22
REMARK                            x       y       z     vdW  Elec       q    Type
REMARK                         _______ _______ _______ _____ _____    ______ ____
ROOT
ATOM      1  C   UNL     1     -46.912  -6.451 -29.378  0.00  0.00    +0.000 C 
ENDROOT
BRANCH   1   2
ATOM      2  C   UNL     1     -45.865  -6.138 -30.389  0.00  0.00    +0.000 C 
ATOM      3  N   UNL     1     -46.165  -6.264 -31.779  0.00  0.00    +0.000 NA
ATOM      4  O   UNL     1     -44.713  -5.798 -30.009  0.00  0.00    +0.000 OA
BRANCH   3   5
ATOM      5  C   UNL     1     -45.170  -6.007 -32.807  0.00  0.00    +0.000 C 
BRANCH   5   6
ATOM      6  C   UNL     1     -45.751  -5.096 -33.875  0.00  0.00    +0.000 C 
BRANCH   6   7
ATOM      7  S   UNL     1     -47.200  -4.196 -33.237  0.00  0.00    +0.000 S 
BRANCH   7  10
ATOM      8  C   UNL     1     -43.752  -0.371 -32.421  0.00  0.00    +0.000 C 
ATOM      9  C   UNL     1     -44.810  -1.391 -32.198  0.00  0.00    +0.000 A 
ATOM     10  C   UNL     1     -46.199  -2.916 -32.490  0.00  0.00    +0.000 A 
ATOM     11  N   UNL     1     -45.392  -1.609 -31.006  0.00  0.00    +0.000 NA
ATOM     12  N   UNL     1     -46.273  -2.578 -31.191  0.00  0.00    +0.000 NA
ATOM     13  N   UNL     1     -45.285  -2.194 -33.168  0.00  0.00    +0.000 NA
ENDBRANCH   7  10
ENDBRANCH   6   7
ENDBRANCH   5   6
ENDBRANCH   3   5
ENDBRANCH   1   2
BRANCH   1  14
ATOM     14  C   UNL     1     -46.283  -6.694 -28.012  0.00  0.00    +0.000 C 
BRANCH  14  15
ATOM     15  C   UNL     1     -46.645  -5.596 -27.062  0.00  0.00    +0.000 A 
ATOM     16  C   UNL     1     -47.033  -4.331 -27.526  0.00  0.00    +0.000 A 
ATOM     17  C   UNL     1     -47.374  -3.323 -26.619  0.00  0.00    +0.000 A 
ATOM     18  C   UNL     1     -47.330  -3.577 -25.245  0.00  0.00    +0.000 A 
ATOM     19  C   UNL     1     -46.945  -4.837 -24.778  0.00  0.00    +0.000 A 
ATOM     20  C   UNL     1     -46.604  -5.845 -25.685  0.00  0.00    +0.000 A 
ATOM     21 CL   UNL     1     -47.756  -2.316 -24.109  0.00  0.00    +0.000 Cl
ENDBRANCH  14  15
BRANCH  14  22
ATOM     22  N   UNL     1     -46.711  -7.983 -27.482  0.00  0.00    +0.000 NA
BRANCH  22  24
ATOM     23  C   UNL     1     -45.241  -9.796 -29.170  0.00  0.00    +0.000 C 
ATOM     24  S   UNL     1     -45.363  -9.068 -27.551  0.00  0.00    +0.000 S 
ATOM     25  O   UNL     1     -44.093  -8.328 -27.238  0.00  0.00    +0.000 OA
ATOM     26  O   UNL     1     -45.560 -10.161 -26.540  0.00  0.00    +0.000 OA
ENDBRANCH  22  24
ENDBRANCH  14  22
ENDBRANCH   1  14
TORSDOF 9
ENDMDL
MODEL 3
REMARK VINA RESULT:      -5.5      1.459      2.095
REMARK  Name = ZINC000225948475
REMARK  9 active torsions:
REMARK  status: ('A' for Active; 'I' for Inactive)
REMARK    1  A    between atoms: C_3  and  S_21
REMARK    2  A    between atoms: C_4  and  C_5
REMARK    3  A    between atoms: C_4  and  S_21
REMARK    4  A    between atoms: C_5  and  N_18
REMARK    5  A    between atoms: C_6  and  C_7
REMARK    6  A    between atoms: C_7  and  C_8
REMARK    7  A    between atoms: C_8  and  C_10
REMARK    8  A    between atoms: C_8  and  N_19
REMARK    9  A    between atoms: N_19  and  S_22
REMARK                            x       y       z     vdW  Elec       q    Type
REMARK                         _______ _______ _______ _____ _____    ______ ____
ROOT
ATOM      1  C   UNL     1     -45.686 -18.828 -23.866  0.00  0.00    +0.000 C 
ENDROOT
BRANCH   1   2
ATOM      2  C   UNL     1     -45.150 -18.414 -25.192  0.00  0.00    +0.000 C 
ATOM      3  N   UNL     1     -44.726 -17.066 -25.392  0.00  0.00    +0.000 NA
ATOM      4  O   UNL     1     -45.107 -19.247 -26.136  0.00  0.00    +0.000 OA
BRANCH   3   5
ATOM      5  C   UNL     1     -44.230 -16.597 -26.676  0.00  0.00    +0.000 C 
BRANCH   5   6
ATOM      6  C   UNL     1     -44.012 -15.095 -26.632  0.00  0.00    +0.000 C 
BRANCH   6   7
ATOM      7  S   UNL     1     -45.466 -14.213 -27.284  0.00  0.00    +0.000 S 
BRANCH   7  10
ATOM      8  C   UNL     1     -45.433 -12.543 -22.344  0.00  0.00    +0.000 C 
ATOM      9  C   UNL     1     -45.634 -12.598 -23.816  0.00  0.00    +0.000 A 
ATOM     10  C   UNL     1     -45.660 -13.233 -25.800  0.00  0.00    +0.000 A 
ATOM     11  N   UNL     1     -46.179 -11.597 -24.529  0.00  0.00    +0.000 NA
ATOM     12  N   UNL     1     -46.197 -12.001 -25.788  0.00  0.00    +0.000 NA
ATOM     13  N   UNL     1     -45.291 -13.655 -24.575  0.00  0.00    +0.000 NA
ENDBRANCH   7  10
ENDBRANCH   6   7
ENDBRANCH   5   6
ENDBRANCH   3   5
ENDBRANCH   1   2
BRANCH   1  14
ATOM     14  C   UNL     1     -44.668 -18.552 -22.767  0.00  0.00    +0.000 C 
BRANCH  14  15
ATOM     15  C   UNL     1     -45.320 -17.869 -21.605  0.00  0.00    +0.000 A 
ATOM     16  C   UNL     1     -45.849 -18.603 -20.533  0.00  0.00    +0.000 A 
ATOM     17  C   UNL     1     -46.446 -17.942 -19.456  0.00  0.00    +0.000 A 
ATOM     18  C   UNL     1     -46.516 -16.546 -19.445  0.00  0.00    +0.000 A 
ATOM     19  C   UNL     1     -45.989 -15.811 -20.510  0.00  0.00    +0.000 A 
ATOM     20  C   UNL     1     -45.391 -16.471 -21.588  0.00  0.00    +0.000 A 
ATOM     21 CL   UNL     1     -47.264 -15.718 -18.097  0.00  0.00    +0.000 Cl
ENDBRANCH  14  15
BRANCH  14  22
ATOM     22  N   UNL     1     -44.043 -19.796 -22.334  0.00  0.00    +0.000 NA
BRANCH  22  24
ATOM     23  C   UNL     1     -41.331 -20.618 -21.815  0.00  0.00    +0.000 C 
ATOM     24  S   UNL     1     -42.432 -19.837 -22.973  0.00  0.00    +0.000 S 
ATOM     25  O   UNL     1     -42.416 -20.596 -24.271  0.00  0.00    +0.000 OA
ATOM     26  O   UNL     1     -41.965 -18.430 -23.217  0.00  0.00    +0.000 OA
ENDBRANCH  22  24
ENDBRANCH  14  22
ENDBRANCH   1  14
TORSDOF 9
ENDMDL
