MODEL 1
REMARK VINA RESULT:      -6.0      0.000      0.000
REMARK  Name = ZINC000011118204 ZINC11118204 ChemDiv-D289-0016 MCULE-3876804959 MolPort-006-798-638 PubChem-17200660
REMARK  6 active torsions:
REMARK  status: ('A' for Active; 'I' for Inactive)
REMARK    1  A    between atoms: C_2  and  C_3
REMARK    2  A    between atoms: C_7  and  C_8
REMARK    3  A    between atoms: C_7  and  N_20
REMARK    4  A    between atoms: C_9  and  C_10
REMARK    5  A    between atoms: C_9  and  N_21
REMARK    6  A    between atoms: C_10  and  O_23
REMARK                            x       y       z     vdW  Elec       q    Type
REMARK                         _______ _______ _______ _____ _____    ______ ____
ROOT
ATOM      1  C   UNL     1     -47.109  -4.208 -25.250  0.00  0.00    +0.000 A 
ATOM      2  C   UNL     1     -46.758  -5.338 -24.516  0.00  0.00    +0.000 A 
ATOM      3  C   UNL     1     -46.386  -6.507 -25.176  0.00  0.00    +0.000 A 
ATOM      4  C   UNL     1     -46.352  -6.574 -26.580  0.00  0.00    +0.000 A 
ATOM      5  C   UNL     1     -46.507  -6.529 -29.622  0.00  0.00    +0.000 A 
ATOM      6  C   UNL     1     -46.683  -5.375 -28.832  0.00  0.00    +0.000 A 
ATOM      7  C   UNL     1     -46.860  -4.142 -29.488  0.00  0.00    +0.000 A 
ATOM      8  C   UNL     1     -46.858  -4.058 -30.882  0.00  0.00    +0.000 A 
ATOM      9  C   UNL     1     -46.681  -5.209 -31.648  0.00  0.00    +0.000 A 
ATOM     10  C   UNL     1     -46.506  -6.442 -31.018  0.00  0.00    +0.000 A 
ATOM     11  C   UNL     1     -46.702  -5.420 -27.337  0.00  0.00    +0.000 A 
ATOM     12  C   UNL     1     -47.072  -4.251 -26.644  0.00  0.00    +0.000 A 
ATOM     13  N   UNL     1     -45.956  -7.809 -27.208  0.00  0.00    +0.000 N 
ATOM     14  O   UNL     1     -47.544  -8.904 -29.016  0.00  0.00    +0.000 OA
ATOM     15  O   UNL     1     -45.131  -8.794 -29.516  0.00  0.00    +0.000 OA
ATOM     16  S   UNL     1     -46.292  -8.085 -28.875  0.00  0.00    +0.000 S 
ENDROOT
BRANCH   1  18
ATOM     17  C   UNL     1     -47.426  -1.766 -25.481  0.00  0.00    +0.000 C 
ATOM     18  C   UNL     1     -47.487  -2.954 -24.538  0.00  0.00    +0.000 C 
ENDBRANCH   1  18
BRANCH  13  19
ATOM     19  C   UNL     1     -45.370  -8.908 -26.445  0.00  0.00    +0.000 C 
BRANCH  19  20
ATOM     20  C   UNL     1     -46.305 -10.069 -26.407  0.00  0.00    +0.000 C 
ATOM     21  N   UNL     1     -45.930 -11.301 -27.025  0.00  0.00    +0.000 NA
ATOM     22  O   UNL     1     -47.417  -9.955 -25.828  0.00  0.00    +0.000 OA
BRANCH  21  23
ATOM     23  C   UNL     1     -46.799 -12.466 -27.012  0.00  0.00    +0.000 C 
BRANCH  23  24
ATOM     24  C   UNL     1     -47.196 -12.826 -28.432  0.00  0.00    +0.000 C 
BRANCH  24  26
ATOM     25  C   UNL     1     -46.080 -12.808 -30.334  0.00  0.00    +0.000 C 
ATOM     26  O   UNL     1     -46.123 -13.431 -29.088  0.00  0.00    +0.000 OA
ENDBRANCH  24  26
ENDBRANCH  23  24
ENDBRANCH  21  23
ENDBRANCH  19  20
ENDBRANCH  13  19
TORSDOF 6
ENDMDL
MODEL 2
REMARK VINA RESULT:      -6.0      2.845      6.450
REMARK  Name = ZINC000011118204 ZINC11118204 ChemDiv-D289-0016 MCULE-3876804959 MolPort-006-798-638 PubChem-17200660
REMARK  6 active torsions:
REMARK  status: ('A' for Active; 'I' for Inactive)
REMARK    1  A    between atoms: C_2  and  C_3
REMARK    2  A    between atoms: C_7  and  C_8
REMARK    3  A    between atoms: C_7  and  N_20
REMARK    4  A    between atoms: C_9  and  C_10
REMARK    5  A    between atoms: C_9  and  N_21
REMARK    6  A    between atoms: C_10  and  O_23
REMARK                            x       y       z     vdW  Elec       q    Type
REMARK                         _______ _______ _______ _____ _____    ______ ____
ROOT
ATOM      1  C   UNL     1     -47.336  -2.945 -24.953  0.00  0.00    +0.000 A 
ATOM      2  C   UNL     1     -47.636  -2.337 -26.169  0.00  0.00    +0.000 A 
ATOM      3  C   UNL     1     -47.590  -3.079 -27.347  0.00  0.00    +0.000 A 
ATOM      4  C   UNL     1     -47.247  -4.443 -27.338  0.00  0.00    +0.000 A 
ATOM      5  C   UNL     1     -46.326  -7.336 -27.090  0.00  0.00    +0.000 A 
ATOM      6  C   UNL     1     -46.588  -6.520 -25.971  0.00  0.00    +0.000 A 
ATOM      7  C   UNL     1     -46.491  -7.098 -24.691  0.00  0.00    +0.000 A 
ATOM      8  C   UNL     1     -46.151  -8.443 -24.529  0.00  0.00    +0.000 A 
ATOM      9  C   UNL     1     -45.896  -9.236 -25.647  0.00  0.00    +0.000 A 
ATOM     10  C   UNL     1     -45.983  -8.682 -26.925  0.00  0.00    +0.000 A 
ATOM     11  C   UNL     1     -46.946  -5.073 -26.097  0.00  0.00    +0.000 A 
ATOM     12  C   UNL     1     -47.003  -4.300 -24.922  0.00  0.00    +0.000 A 
ATOM     13  N   UNL     1     -47.219  -5.161 -28.587  0.00  0.00    +0.000 N 
ATOM     14  O   UNL     1     -45.037  -6.492 -29.260  0.00  0.00    +0.000 OA
ATOM     15  O   UNL     1     -47.213  -7.611 -29.575  0.00  0.00    +0.000 OA
ATOM     16  S   UNL     1     -46.417  -6.682 -28.700  0.00  0.00    +0.000 S 
ENDROOT
BRANCH   1  18
ATOM     17  C   UNL     1     -47.021  -3.007 -22.500  0.00  0.00    +0.000 C 
ATOM     18  C   UNL     1     -47.406  -2.151 -23.693  0.00  0.00    +0.000 C 
ENDBRANCH   1  18
BRANCH  13  19
ATOM     19  C   UNL     1     -47.756  -4.586 -29.818  0.00  0.00    +0.000 C 
BRANCH  19  20
ATOM     20  C   UNL     1     -46.648  -4.238 -30.754  0.00  0.00    +0.000 C 
ATOM     21  N   UNL     1     -45.907  -3.034 -30.557  0.00  0.00    +0.000 NA
ATOM     22  O   UNL     1     -46.375  -5.011 -31.709  0.00  0.00    +0.000 OA
BRANCH  21  23
ATOM     23  C   UNL     1     -44.813  -2.649 -31.435  0.00  0.00    +0.000 C 
BRANCH  23  24
ATOM     24  C   UNL     1     -44.873  -1.157 -31.704  0.00  0.00    +0.000 C 
BRANCH  24  26
ATOM     25  C   UNL     1     -43.459  -1.914 -33.219  0.00  0.00    +0.000 C 
ATOM     26  O   UNL     1     -43.786  -0.771 -32.490  0.00  0.00    +0.000 OA
ENDBRANCH  24  26
ENDBRANCH  23  24
ENDBRANCH  21  23
ENDBRANCH  19  20
ENDBRANCH  13  19
TORSDOF 6
ENDMDL
MODEL 3
REMARK VINA RESULT:      -5.8      8.966     12.382
REMARK  Name = ZINC000011118204 ZINC11118204 ChemDiv-D289-0016 MCULE-3876804959 MolPort-006-798-638 PubChem-17200660
REMARK  6 active torsions:
REMARK  status: ('A' for Active; 'I' for Inactive)
REMARK    1  A    between atoms: C_2  and  C_3
REMARK    2  A    between atoms: C_7  and  C_8
REMARK    3  A    between atoms: C_7  and  N_20
REMARK    4  A    between atoms: C_9  and  C_10
REMARK    5  A    between atoms: C_9  and  N_21
REMARK    6  A    between atoms: C_10  and  O_23
REMARK                            x       y       z     vdW  Elec       q    Type
REMARK                         _______ _______ _______ _____ _____    ______ ____
ROOT
ATOM      1  C   UNL     1     -45.852 -16.868 -19.748  0.00  0.00    +0.000 A 
ATOM      2  C   UNL     1     -45.426 -18.193 -19.741  0.00  0.00    +0.000 A 
ATOM      3  C   UNL     1     -45.045 -18.807 -20.931  0.00  0.00    +0.000 A 
ATOM      4  C   UNL     1     -45.077 -18.113 -22.154  0.00  0.00    +0.000 A 
ATOM      5  C   UNL     1     -45.381 -16.461 -24.695  0.00  0.00    +0.000 A 
ATOM      6  C   UNL     1     -45.560 -15.918 -23.407  0.00  0.00    +0.000 A 
ATOM      7  C   UNL     1     -45.813 -14.537 -23.297  0.00  0.00    +0.000 A 
ATOM      8  C   UNL     1     -45.881 -13.723 -24.430  0.00  0.00    +0.000 A 
ATOM      9  C   UNL     1     -45.701 -14.276 -25.697  0.00  0.00    +0.000 A 
ATOM     10  C   UNL     1     -45.452 -15.643 -25.828  0.00  0.00    +0.000 A 
ATOM     11  C   UNL     1     -45.505 -16.754 -22.168  0.00  0.00    +0.000 A 
ATOM     12  C   UNL     1     -45.881 -16.158 -20.949  0.00  0.00    +0.000 A 
ATOM     13  N   UNL     1     -44.668 -18.798 -23.354  0.00  0.00    +0.000 N 
ATOM     14  O   UNL     1     -46.302 -18.847 -25.431  0.00  0.00    +0.000 OA
ATOM     15  O   UNL     1     -43.922 -18.352 -25.848  0.00  0.00    +0.000 OA
ATOM     16  S   UNL     1     -45.075 -18.161 -24.902  0.00  0.00    +0.000 S 
ENDROOT
BRANCH   1  18
ATOM     17  C   UNL     1     -47.751 -16.115 -18.352  0.00  0.00    +0.000 C 
ATOM     18  C   UNL     1     -46.240 -16.209 -18.468  0.00  0.00    +0.000 C 
ENDBRANCH   1  18
BRANCH  13  19
ATOM     19  C   UNL     1     -44.006 -20.099 -23.310  0.00  0.00    +0.000 C 
BRANCH  19  20
ATOM     20  C   UNL     1     -42.596 -19.949 -22.848  0.00  0.00    +0.000 C 
ATOM     21  N   UNL     1     -42.120 -20.736 -21.757  0.00  0.00    +0.000 NA
ATOM     22  O   UNL     1     -41.836 -19.129 -23.428  0.00  0.00    +0.000 OA
BRANCH  21  23
ATOM     23  C   UNL     1     -40.753 -20.635 -21.271  0.00  0.00    +0.000 C 
BRANCH  23  24
ATOM     24  C   UNL     1     -40.752 -20.557 -19.755  0.00  0.00    +0.000 C 
BRANCH  24  26
ATOM     25  C   UNL     1     -42.156 -21.097 -18.142  0.00  0.00    +0.000 C 
ATOM     26  O   UNL     1     -42.045 -20.314 -19.290  0.00  0.00    +0.000 OA
ENDBRANCH  24  26
ENDBRANCH  23  24
ENDBRANCH  21  23
ENDBRANCH  19  20
ENDBRANCH  13  19
TORSDOF 6
ENDMDL
