MODEL 1
REMARK VINA RESULT:      -5.9      0.000      0.000
REMARK  Name = ZINC000004686535 ZINC04686535 PubChem-92227604
REMARK  5 active torsions:
REMARK  status: ('A' for Active; 'I' for Inactive)
REMARK    1  A    between atoms: C_6  and  N_23
REMARK    2  A    between atoms: C_9  and  C_10
REMARK    3  A    between atoms: C_14  and  C_15
REMARK    4  A    between atoms: C_14  and  N_24
REMARK    5  A    between atoms: C_15  and  C_16
REMARK                            x       y       z     vdW  Elec       q    Type
REMARK                         _______ _______ _______ _____ _____    ______ ____
ROOT
ATOM      1  C   UNL     1     -44.973 -13.821 -25.115  0.00  0.00    +0.000 C 
ATOM      2  C   UNL     1     -45.882 -12.649 -25.518  0.00  0.00    +0.000 C 
ATOM      3  C   UNL     1     -46.145 -12.751 -27.025  0.00  0.00    +0.000 C 
ATOM      4  C   UNL     1     -45.337 -13.914 -27.432  0.00  0.00    +0.000 C 
ATOM      5  C   UNL     1     -43.708 -13.271 -24.470  0.00  0.00    +0.000 C 
ATOM      6  N   UNL     1     -44.642 -14.511 -26.356  0.00  0.00    +0.000 N 
ATOM      7  O   UNL     1     -45.281 -14.345 -28.614  0.00  0.00    +0.000 OA
ENDROOT
BRANCH   1   8
ATOM      8  C   UNL     1     -45.723 -14.728 -24.174  0.00  0.00    +0.000 C 
ATOM      9  N   UNL     1     -45.072 -15.231 -23.002  0.00  0.00    +0.000 NA
ATOM     10  O   UNL     1     -46.899 -15.097 -24.447  0.00  0.00    +0.000 OA
BRANCH   9  16
ATOM     11  C   UNL     1     -46.792 -15.988 -18.374  0.00  0.00    +0.000 C 
ATOM     12  C   UNL     1     -46.549 -16.562 -19.760  0.00  0.00    +0.000 C 
ATOM     13  C   UNL     1     -45.744 -17.858 -19.674  0.00  0.00    +0.000 C 
ATOM     14  C   UNL     1     -45.575 -18.464 -21.065  0.00  0.00    +0.000 C 
ATOM     15  C   UNL     1     -44.889 -17.472 -22.001  0.00  0.00    +0.000 C 
ATOM     16  C   UNL     1     -45.700 -16.175 -22.085  0.00  0.00    +0.000 C 
ATOM     17  C   UNL     1     -45.877 -15.545 -20.696  0.00  0.00    +0.000 C 
ATOM     18  C   UNL     1     -44.549 -15.034 -20.133  0.00  0.00    +0.000 C 
ENDBRANCH   9  16
ENDBRANCH   1   8
BRANCH   6  19
ATOM     19  C   UNL     1     -43.854 -15.738 -26.451  0.00  0.00    +0.000 C 
BRANCH  19  20
ATOM     20  C   UNL     1     -44.757 -16.966 -26.480  0.00  0.00    +0.000 C 
BRANCH  20  21
ATOM     21  C   UNL     1     -44.192 -18.079 -25.665  0.00  0.00    +0.000 A 
ATOM     22  C   UNL     1     -42.903 -17.983 -25.124  0.00  0.00    +0.000 A 
ATOM     23  C   UNL     1     -42.383 -19.032 -24.361  0.00  0.00    +0.000 A 
ATOM     24  C   UNL     1     -43.152 -20.179 -24.135  0.00  0.00    +0.000 A 
ATOM     25  C   UNL     1     -44.441 -20.274 -24.667  0.00  0.00    +0.000 A 
ATOM     26  C   UNL     1     -44.961 -19.224 -25.430  0.00  0.00    +0.000 A 
ATOM     27 CL   UNL     1     -42.501 -21.494 -23.181  0.00  0.00    +0.000 Cl
ENDBRANCH  20  21
ENDBRANCH  19  20
ENDBRANCH   6  19
TORSDOF 5
ENDMDL
MODEL 2
REMARK VINA RESULT:      -5.7      2.612      3.978
REMARK  Name = ZINC000004686535 ZINC04686535 PubChem-92227604
REMARK  5 active torsions:
REMARK  status: ('A' for Active; 'I' for Inactive)
REMARK    1  A    between atoms: C_6  and  N_23
REMARK    2  A    between atoms: C_9  and  C_10
REMARK    3  A    between atoms: C_14  and  C_15
REMARK    4  A    between atoms: C_14  and  N_24
REMARK    5  A    between atoms: C_15  and  C_16
REMARK                            x       y       z     vdW  Elec       q    Type
REMARK                         _______ _______ _______ _____ _____    ______ ____
ROOT
ATOM      1  C   UNL     1     -44.282 -16.363 -23.997  0.00  0.00    +0.000 C 
ATOM      2  C   UNL     1     -44.114 -15.595 -25.319  0.00  0.00    +0.000 C 
ATOM      3  C   UNL     1     -44.487 -16.542 -26.465  0.00  0.00    +0.000 C 
ATOM      4  C   UNL     1     -44.782 -17.810 -25.776  0.00  0.00    +0.000 C 
ATOM      5  C   UNL     1     -42.957 -16.357 -23.246  0.00  0.00    +0.000 C 
ATOM      6  N   UNL     1     -44.637 -17.726 -24.373  0.00  0.00    +0.000 N 
ATOM      7  O   UNL     1     -45.141 -18.860 -26.371  0.00  0.00    +0.000 OA
ENDROOT
BRANCH   1   8
ATOM      8  C   UNL     1     -45.378 -15.720 -23.187  0.00  0.00    +0.000 C 
ATOM      9  N   UNL     1     -45.256 -15.641 -21.762  0.00  0.00    +0.000 NA
ATOM     10  O   UNL     1     -46.430 -15.309 -23.751  0.00  0.00    +0.000 OA
BRANCH   9  16
ATOM     11  C   UNL     1     -47.114 -11.577 -19.531  0.00  0.00    +0.000 C 
ATOM     12  C   UNL     1     -47.230 -13.073 -19.768  0.00  0.00    +0.000 C 
ATOM     13  C   UNL     1     -47.282 -13.828 -18.441  0.00  0.00    +0.000 C 
ATOM     14  C   UNL     1     -47.477 -15.321 -18.694  0.00  0.00    +0.000 C 
ATOM     15  C   UNL     1     -46.353 -15.867 -19.571  0.00  0.00    +0.000 C 
ATOM     16  C   UNL     1     -46.305 -15.108 -20.902  0.00  0.00    +0.000 C 
ATOM     17  C   UNL     1     -46.103 -13.603 -20.671  0.00  0.00    +0.000 C 
ATOM     18  C   UNL     1     -44.717 -13.299 -20.099  0.00  0.00    +0.000 C 
ENDBRANCH   9  16
ENDBRANCH   1   8
BRANCH   6  19
ATOM     19  C   UNL     1     -44.968 -18.797 -23.435  0.00  0.00    +0.000 C 
BRANCH  19  20
ATOM     20  C   UNL     1     -43.730 -19.613 -23.080  0.00  0.00    +0.000 C 
BRANCH  20  21
ATOM     21  C   UNL     1     -43.426 -19.539 -21.622  0.00  0.00    +0.000 A 
ATOM     22  C   UNL     1     -42.190 -19.979 -21.129  0.00  0.00    +0.000 A 
ATOM     23  C   UNL     1     -41.916 -19.904 -19.761  0.00  0.00    +0.000 A 
ATOM     24  C   UNL     1     -42.875 -19.387 -18.883  0.00  0.00    +0.000 A 
ATOM     25  C   UNL     1     -44.105 -18.941 -19.374  0.00  0.00    +0.000 A 
ATOM     26  C   UNL     1     -44.380 -19.015 -20.743  0.00  0.00    +0.000 A 
ATOM     27 CL   UNL     1     -42.531 -19.295 -17.169  0.00  0.00    +0.000 Cl
ENDBRANCH  20  21
ENDBRANCH  19  20
ENDBRANCH   6  19
TORSDOF 5
ENDMDL
MODEL 3
REMARK VINA RESULT:      -5.7     10.831     14.116
REMARK  Name = ZINC000004686535 ZINC04686535 PubChem-92227604
REMARK  5 active torsions:
REMARK  status: ('A' for Active; 'I' for Inactive)
REMARK    1  A    between atoms: C_6  and  N_23
REMARK    2  A    between atoms: C_9  and  C_10
REMARK    3  A    between atoms: C_14  and  C_15
REMARK    4  A    between atoms: C_14  and  N_24
REMARK    5  A    between atoms: C_15  and  C_16
REMARK                            x       y       z     vdW  Elec       q    Type
REMARK                         _______ _______ _______ _____ _____    ______ ____
ROOT
ATOM      1  C   UNL     1     -46.163  -3.785 -33.137  0.00  0.00    +0.000 C 
ATOM      2  C   UNL     1     -45.318  -2.679 -33.791  0.00  0.00    +0.000 C 
ATOM      3  C   UNL     1     -44.913  -1.685 -32.696  0.00  0.00    +0.000 C 
ATOM      4  C   UNL     1     -45.585  -2.211 -31.495  0.00  0.00    +0.000 C 
ATOM      5  C   UNL     1     -47.521  -3.845 -33.824  0.00  0.00    +0.000 C 
ATOM      6  N   UNL     1     -46.325  -3.389 -31.743  0.00  0.00    +0.000 N 
ATOM      7  O   UNL     1     -45.500  -1.677 -30.357  0.00  0.00    +0.000 OA
ENDROOT
BRANCH   1   8
ATOM      8  C   UNL     1     -45.430  -5.098 -33.247  0.00  0.00    +0.000 C 
ATOM      9  N   UNL     1     -46.135  -6.272 -33.665  0.00  0.00    +0.000 NA
ATOM     10  O   UNL     1     -44.216  -5.179 -32.912  0.00  0.00    +0.000 OA
BRANCH   9  16
ATOM     11  C   UNL     1     -43.434  -9.471 -36.389  0.00  0.00    +0.000 C 
ATOM     12  C   UNL     1     -44.178  -9.205 -35.091  0.00  0.00    +0.000 C 
ATOM     13  C   UNL     1     -45.211 -10.300 -34.827  0.00  0.00    +0.000 C 
ATOM     14  C   UNL     1     -45.895 -10.061 -33.483  0.00  0.00    +0.000 C 
ATOM     15  C   UNL     1     -46.559  -8.687 -33.456  0.00  0.00    +0.000 C 
ATOM     16  C   UNL     1     -45.520  -7.592 -33.721  0.00  0.00    +0.000 C 
ATOM     17  C   UNL     1     -44.823  -7.809 -35.071  0.00  0.00    +0.000 C 
ATOM     18  C   UNL     1     -45.784  -7.602 -36.244  0.00  0.00    +0.000 C 
ENDBRANCH   9  16
ENDBRANCH   1   8
BRANCH   6  19
ATOM     19  C   UNL     1     -47.000  -4.182 -30.718  0.00  0.00    +0.000 C 
BRANCH  19  20
ATOM     20  C   UNL     1     -45.990  -4.894 -29.824  0.00  0.00    +0.000 C 
BRANCH  20  21
ATOM     21  C   UNL     1     -46.174  -6.372 -29.860  0.00  0.00    +0.000 A 
ATOM     22  C   UNL     1     -47.460  -6.930 -29.864  0.00  0.00    +0.000 A 
ATOM     23  C   UNL     1     -47.622  -8.317 -29.899  0.00  0.00    +0.000 A 
ATOM     24  C   UNL     1     -46.499  -9.151 -29.932  0.00  0.00    +0.000 A 
ATOM     25  C   UNL     1     -45.216  -8.597 -29.936  0.00  0.00    +0.000 A 
ATOM     26  C   UNL     1     -45.053  -7.209 -29.903  0.00  0.00    +0.000 A 
ATOM     27 CL   UNL     1     -46.702 -10.889 -29.974  0.00  0.00    +0.000 Cl
ENDBRANCH  20  21
ENDBRANCH  19  20
ENDBRANCH   6  19
TORSDOF 5
ENDMDL
