MODEL 1
REMARK VINA RESULT:      -6.9      0.000      0.000
REMARK  Name = ZINC000262769186
REMARK  4 active torsions:
REMARK  status: ('A' for Active; 'I' for Inactive)
REMARK    1  A    between atoms: C_3  and  C_4
REMARK    2  A    between atoms: C_5  and  C_6
REMARK    3  A    between atoms: C_7  and  N_22
REMARK    4  A    between atoms: C_11  and  C_12
REMARK                            x       y       z     vdW  Elec       q    Type
REMARK                         _______ _______ _______ _____ _____    ______ ____
ROOT
ATOM      1  C   UNL     1     -40.381  -0.155 -32.343  0.00  0.00    +0.000 C 
ATOM      2  N   UNL     1     -41.375  -0.980 -32.971  0.00  0.00    +0.000 NA
ATOM      3  O   UNL     1     -40.577   0.338 -31.200  0.00  0.00    +0.000 OA
ENDROOT
BRANCH   2   4
ATOM      4  C   UNL     1     -42.655  -1.341 -32.438  0.00  0.00    +0.000 A 
ATOM      5  C   UNL     1     -43.681  -0.383 -32.246  0.00  0.00    +0.000 A 
ATOM      6  C   UNL     1     -44.932  -0.757 -31.721  0.00  0.00    +0.000 A 
ATOM      7  C   UNL     1     -45.117  -2.098 -31.403  0.00  0.00    +0.000 A 
ATOM      8  C   UNL     1     -45.917  -3.946 -30.766  0.00  0.00    +0.000 A 
ATOM      9  C   UNL     1     -44.618  -4.254 -31.179  0.00  0.00    +0.000 A 
ATOM     10  C   UNL     1     -44.133  -3.029 -31.585  0.00  0.00    +0.000 A 
ATOM     11  C   UNL     1     -42.886  -2.689 -32.102  0.00  0.00    +0.000 A 
ATOM     12  O   UNL     1     -46.187  -2.661 -30.909  0.00  0.00    +0.000 OA
BRANCH   8  13
ATOM     13  C   UNL     1     -46.881  -4.914 -30.234  0.00  0.00    +0.000 C 
ATOM     14  O   UNL     1     -46.998  -6.052 -30.760  0.00  0.00    +0.000 OA
ATOM     15  O   UNL     1     -47.672  -4.577 -29.143  0.00  0.00    +0.000 OA
ENDBRANCH   8  13
ENDBRANCH   2   4
BRANCH   1  17
ATOM     16  C   UNL     1     -38.260   1.192 -32.311  0.00  0.00    +0.000 C 
ATOM     17  C   UNL     1     -39.083   0.122 -33.036  0.00  0.00    +0.000 C 
ATOM     18  C   UNL     1     -38.267  -1.143 -33.302  0.00  0.00    +0.000 C 
ATOM     19  C   UNL     1     -37.711  -1.763 -32.024  0.00  0.00    +0.000 C 
ATOM     20  C   UNL     1     -37.121  -0.741 -31.099  0.00  0.00    +0.000 C 
ATOM     21  C   UNL     1     -37.028   1.579 -30.167  0.00  0.00    +0.000 C 
ATOM     22  N   UNL     1     -37.473   0.651 -31.196  0.00  0.00    +0.000 N 
ATOM     23  O   UNL     1     -36.344  -1.134 -30.188  0.00  0.00    +0.000 OA
BRANCH  16  26
ATOM     24  C   UNL     1     -36.475   4.663 -35.409  0.00  0.00    +0.000 C 
ATOM     25  C   UNL     1     -37.633   3.182 -33.792  0.00  0.00    +0.000 A 
ATOM     26  C   UNL     1     -37.382   1.929 -33.276  0.00  0.00    +0.000 A 
ATOM     27  C   UNL     1     -36.210   1.473 -33.855  0.00  0.00    +0.000 A 
ATOM     28  N   UNL     1     -36.622   3.444 -34.638  0.00  0.00    +0.000 N 
ATOM     29  N   UNL     1     -35.768   2.436 -34.687  0.00  0.00    +0.000 NA
ENDBRANCH  16  26
ENDBRANCH   1  17
TORSDOF 4
ENDMDL
MODEL 2
REMARK VINA RESULT:      -6.3      9.736     13.721
REMARK  Name = ZINC000262769186
REMARK  4 active torsions:
REMARK  status: ('A' for Active; 'I' for Inactive)
REMARK    1  A    between atoms: C_3  and  C_4
REMARK    2  A    between atoms: C_5  and  C_6
REMARK    3  A    between atoms: C_7  and  N_22
REMARK    4  A    between atoms: C_11  and  C_12
REMARK                            x       y       z     vdW  Elec       q    Type
REMARK                         _______ _______ _______ _____ _____    ______ ____
ROOT
ATOM      1  C   UNL     1     -46.593 -11.264 -28.784  0.00  0.00    +0.000 C 
ATOM      2  N   UNL     1     -45.623 -11.709 -27.824  0.00  0.00    +0.000 NA
ATOM      3  O   UNL     1     -47.293 -12.091 -29.428  0.00  0.00    +0.000 OA
ENDROOT
BRANCH   2   4
ATOM      4  C   UNL     1     -45.316 -13.065 -27.475  0.00  0.00    +0.000 A 
ATOM      5  C   UNL     1     -44.323 -13.806 -28.163  0.00  0.00    +0.000 A 
ATOM      6  C   UNL     1     -44.036 -15.137 -27.806  0.00  0.00    +0.000 A 
ATOM      7  C   UNL     1     -44.763 -15.689 -26.756  0.00  0.00    +0.000 A 
ATOM      8  C   UNL     1     -45.541 -16.984 -25.281  0.00  0.00    +0.000 A 
ATOM      9  C   UNL     1     -46.256 -15.795 -25.112  0.00  0.00    +0.000 A 
ATOM     10  C   UNL     1     -45.721 -14.981 -26.087  0.00  0.00    +0.000 A 
ATOM     11  C   UNL     1     -46.027 -13.664 -26.418  0.00  0.00    +0.000 A 
ATOM     12  O   UNL     1     -44.662 -16.894 -26.263  0.00  0.00    +0.000 OA
BRANCH   8  13
ATOM     13  C   UNL     1     -45.727 -18.197 -24.479  0.00  0.00    +0.000 C 
ATOM     14  O   UNL     1     -46.256 -19.221 -24.985  0.00  0.00    +0.000 OA
ATOM     15  O   UNL     1     -45.318 -18.220 -23.151  0.00  0.00    +0.000 OA
ENDBRANCH   8  13
ENDBRANCH   2   4
BRANCH   1  17
ATOM     16  C   UNL     1     -45.574  -8.972 -28.625  0.00  0.00    +0.000 C 
ATOM     17  C   UNL     1     -46.798  -9.801 -29.028  0.00  0.00    +0.000 C 
ATOM     18  C   UNL     1     -47.252  -9.492 -30.455  0.00  0.00    +0.000 C 
ATOM     19  C   UNL     1     -46.155  -9.740 -31.486  0.00  0.00    +0.000 C 
ATOM     20  C   UNL     1     -44.825  -9.201 -31.052  0.00  0.00    +0.000 C 
ATOM     21  C   UNL     1     -43.185  -8.592 -29.263  0.00  0.00    +0.000 C 
ATOM     22  N   UNL     1     -44.541  -8.932 -29.666  0.00  0.00    +0.000 N 
ATOM     23  O   UNL     1     -43.930  -9.037 -31.923  0.00  0.00    +0.000 OA
BRANCH  16  26
ATOM     24  C   UNL     1     -47.006  -5.039 -25.920  0.00  0.00    +0.000 C 
ATOM     25  C   UNL     1     -46.267  -7.175 -26.940  0.00  0.00    +0.000 A 
ATOM     26  C   UNL     1     -45.981  -7.588 -28.224  0.00  0.00    +0.000 A 
ATOM     27  C   UNL     1     -46.194  -6.505 -29.059  0.00  0.00    +0.000 A 
ATOM     28  N   UNL     1     -46.622  -5.883 -27.035  0.00  0.00    +0.000 N 
ATOM     29  N   UNL     1     -46.585  -5.470 -28.290  0.00  0.00    +0.000 NA
ENDBRANCH  16  26
ENDBRANCH   1  17
TORSDOF 4
ENDMDL
MODEL 3
REMARK VINA RESULT:      -6.3     12.010     16.428
REMARK  Name = ZINC000262769186
REMARK  4 active torsions:
REMARK  status: ('A' for Active; 'I' for Inactive)
REMARK    1  A    between atoms: C_3  and  C_4
REMARK    2  A    between atoms: C_5  and  C_6
REMARK    3  A    between atoms: C_7  and  N_22
REMARK    4  A    between atoms: C_11  and  C_12
REMARK                            x       y       z     vdW  Elec       q    Type
REMARK                         _______ _______ _______ _____ _____    ______ ____
ROOT
ATOM      1  C   UNL     1     -45.629 -13.504 -25.692  0.00  0.00    +0.000 C 
ATOM      2  N   UNL     1     -46.490 -14.547 -25.209  0.00  0.00    +0.000 NA
ATOM      3  O   UNL     1     -44.391 -13.527 -25.458  0.00  0.00    +0.000 OA
ENDROOT
BRANCH   2   4
ATOM      4  C   UNL     1     -46.107 -15.690 -24.435  0.00  0.00    +0.000 A 
ATOM      5  C   UNL     1     -45.910 -16.963 -25.030  0.00  0.00    +0.000 A 
ATOM      6  C   UNL     1     -45.534 -18.074 -24.253  0.00  0.00    +0.000 A 
ATOM      7  C   UNL     1     -45.364 -17.872 -22.887  0.00  0.00    +0.000 A 
ATOM      8  C   UNL     1     -44.980 -18.125 -20.826  0.00  0.00    +0.000 A 
ATOM      9  C   UNL     1     -45.308 -16.773 -20.954  0.00  0.00    +0.000 A 
ATOM     10  C   UNL     1     -45.551 -16.649 -22.306  0.00  0.00    +0.000 A 
ATOM     11  C   UNL     1     -45.923 -15.532 -23.048  0.00  0.00    +0.000 A 
ATOM     12  O   UNL     1     -45.020 -18.754 -21.987  0.00  0.00    +0.000 OA
BRANCH   8  13
ATOM     13  C   UNL     1     -44.629 -18.789 -19.566  0.00  0.00    +0.000 C 
ATOM     14  O   UNL     1     -45.072 -19.938 -19.306  0.00  0.00    +0.000 OA
ATOM     15  O   UNL     1     -43.803 -18.147 -18.652  0.00  0.00    +0.000 OA
ENDBRANCH   8  13
ENDBRANCH   2   4
BRANCH   1  17
ATOM     16  C   UNL     1     -45.125 -11.331 -26.847  0.00  0.00    +0.000 C 
ATOM     17  C   UNL     1     -46.190 -12.374 -26.497  0.00  0.00    +0.000 C 
ATOM     18  C   UNL     1     -46.955 -12.846 -27.734  0.00  0.00    +0.000 C 
ATOM     19  C   UNL     1     -46.039 -13.446 -28.797  0.00  0.00    +0.000 C 
ATOM     20  C   UNL     1     -44.803 -12.628 -29.019  0.00  0.00    +0.000 C 
ATOM     21  C   UNL     1     -43.036 -11.059 -28.198  0.00  0.00    +0.000 C 
ATOM     22  N   UNL     1     -44.335 -11.692 -28.030  0.00  0.00    +0.000 N 
ATOM     23  O   UNL     1     -44.142 -12.814 -30.075  0.00  0.00    +0.000 OA
BRANCH  16  26
ATOM     24  C   UNL     1     -46.920  -7.145 -28.872  0.00  0.00    +0.000 C 
ATOM     25  C   UNL     1     -45.988  -9.347 -28.216  0.00  0.00    +0.000 A 
ATOM     26  C   UNL     1     -45.744  -9.976 -27.014  0.00  0.00    +0.000 A 
ATOM     27  C   UNL     1     -46.126  -9.104 -26.009  0.00  0.00    +0.000 A 
ATOM     28  N   UNL     1     -46.509  -8.148 -27.908  0.00  0.00    +0.000 N 
ATOM     29  N   UNL     1     -46.597  -7.988 -26.598  0.00  0.00    +0.000 NA
ENDBRANCH  16  26
ENDBRANCH   1  17
TORSDOF 4
ENDMDL
