MODEL 1
REMARK VINA RESULT:      -6.9      0.000      0.000
REMARK  Name = ZINC000408606915 PubChem-125618295
REMARK  6 active torsions:
REMARK  status: ('A' for Active; 'I' for Inactive)
REMARK    1  A    between atoms: C_2  and  C_3
REMARK    2  A    between atoms: C_3  and  N_21
REMARK    3  A    between atoms: C_4  and  C_5
REMARK    4  A    between atoms: C_6  and  C_7
REMARK    5  A    between atoms: C_8  and  N_24
REMARK    6  A    between atoms: N_22  and  N_23
REMARK                            x       y       z     vdW  Elec       q    Type
REMARK                         _______ _______ _______ _____ _____    ______ ____
ROOT
ATOM      1  C   UNL     1     -45.797  -6.829 -29.216  0.00  0.00    +0.000 A 
ATOM      2  C   UNL     1     -46.065  -8.198 -29.286  0.00  0.00    +0.000 A 
ATOM      3  C   UNL     1     -45.951  -8.492 -30.632  0.00  0.00    +0.000 A 
ATOM      4  C   UNL     1     -46.064  -9.719 -31.280  0.00  0.00    +0.000 A 
ATOM      5  C   UNL     1     -45.833  -9.752 -32.667  0.00  0.00    +0.000 A 
ATOM      6  C   UNL     1     -45.479  -8.575 -33.360  0.00  0.00    +0.000 A 
ATOM      7  C   UNL     1     -45.367  -7.351 -32.680  0.00  0.00    +0.000 A 
ATOM      8  C   UNL     1     -45.631  -7.342 -31.308  0.00  0.00    +0.000 A 
ATOM      9  N   UNL     1     -45.556  -6.313 -30.447  0.00  0.00    +0.000 N 
ATOM     10 CL   UNL     1     -45.967 -11.265 -33.534  0.00  0.00    +0.000 Cl
ENDROOT
BRANCH   9  12
ATOM     11  C   UNL     1     -46.050  -3.929 -31.047  0.00  0.00    +0.000 C 
ATOM     12  N   UNL     1     -45.150  -4.993 -30.721  0.00  0.00    +0.000 NA
ATOM     13  O   UNL     1     -47.286  -4.053 -30.836  0.00  0.00    +0.000 OA
BRANCH  11  14
ATOM     14  C   UNL     1     -45.522  -2.668 -31.578  0.00  0.00    +0.000 C 
ATOM     15  N   UNL     1     -44.889  -2.645 -32.859  0.00  0.00    +0.000 NA
ATOM     16  O   UNL     1     -45.627  -1.608 -30.903  0.00  0.00    +0.000 OA
BRANCH  15  17
ATOM     17  C   UNL     1     -44.350  -1.423 -33.430  0.00  0.00    +0.000 C 
BRANCH  17  19
ATOM     18  C   UNL     1     -42.277  -0.847 -32.275  0.00  0.00    +0.000 C 
ATOM     19  C   UNL     1     -42.865  -1.435 -33.311  0.00  0.00    +0.000 C 
ENDBRANCH  17  19
ENDBRANCH  15  17
ENDBRANCH  11  14
ENDBRANCH   9  12
BRANCH   1  20
ATOM     20  C   UNL     1     -45.782  -6.056 -27.960  0.00  0.00    +0.000 C 
ATOM     21  N   UNL     1     -46.906  -5.225 -27.633  0.00  0.00    +0.000 NA
ATOM     22  O   UNL     1     -44.788  -6.126 -27.188  0.00  0.00    +0.000 OA
BRANCH  21  23
ATOM     23  C   UNL     1     -47.063  -4.411 -26.463  0.00  0.00    +0.000 A 
ATOM     24  C   UNL     1     -47.231  -3.032 -26.621  0.00  0.00    +0.000 A 
ATOM     25  C   UNL     1     -47.387  -2.205 -25.504  0.00  0.00    +0.000 A 
ATOM     26  C   UNL     1     -47.378  -2.757 -24.220  0.00  0.00    +0.000 A 
ATOM     27  C   UNL     1     -47.212  -4.134 -24.053  0.00  0.00    +0.000 A 
ATOM     28  C   UNL     1     -47.055  -4.958 -25.170  0.00  0.00    +0.000 A 
ATOM     29 CL   UNL     1     -47.573  -1.722 -22.822  0.00  0.00    +0.000 Cl
ENDBRANCH  21  23
ENDBRANCH   1  20
TORSDOF 6
ENDMDL
MODEL 2
REMARK VINA RESULT:      -6.4      2.456      7.033
REMARK  Name = ZINC000408606915 PubChem-125618295
REMARK  6 active torsions:
REMARK  status: ('A' for Active; 'I' for Inactive)
REMARK    1  A    between atoms: C_2  and  C_3
REMARK    2  A    between atoms: C_3  and  N_21
REMARK    3  A    between atoms: C_4  and  C_5
REMARK    4  A    between atoms: C_6  and  C_7
REMARK    5  A    between atoms: C_8  and  N_24
REMARK    6  A    between atoms: N_22  and  N_23
REMARK                            x       y       z     vdW  Elec       q    Type
REMARK                         _______ _______ _______ _____ _____    ______ ____
ROOT
ATOM      1  C   UNL     1     -46.746  -6.547 -26.926  0.00  0.00    +0.000 A 
ATOM      2  C   UNL     1     -46.732  -6.348 -25.543  0.00  0.00    +0.000 A 
ATOM      3  C   UNL     1     -46.908  -4.984 -25.401  0.00  0.00    +0.000 A 
ATOM      4  C   UNL     1     -47.024  -4.226 -24.239  0.00  0.00    +0.000 A 
ATOM      5  C   UNL     1     -47.266  -2.847 -24.377  0.00  0.00    +0.000 A 
ATOM      6  C   UNL     1     -47.405  -2.272 -25.658  0.00  0.00    +0.000 A 
ATOM      7  C   UNL     1     -47.288  -3.061 -26.814  0.00  0.00    +0.000 A 
ATOM      8  C   UNL     1     -47.017  -4.422 -26.647  0.00  0.00    +0.000 A 
ATOM      9  N   UNL     1     -46.897  -5.374 -27.589  0.00  0.00    +0.000 N 
ATOM     10 CL   UNL     1     -47.416  -1.845 -22.951  0.00  0.00    +0.000 Cl
ENDROOT
BRANCH   9  12
ATOM     11  C   UNL     1     -45.972  -5.111 -29.904  0.00  0.00    +0.000 C 
ATOM     12  N   UNL     1     -47.058  -5.229 -28.980  0.00  0.00    +0.000 NA
ATOM     13  O   UNL     1     -44.799  -5.407 -29.550  0.00  0.00    +0.000 OA
BRANCH  11  14
ATOM     14  C   UNL     1     -46.235  -4.695 -31.285  0.00  0.00    +0.000 C 
ATOM     15  N   UNL     1     -46.035  -3.333 -31.668  0.00  0.00    +0.000 NA
ATOM     16  O   UNL     1     -46.637  -5.540 -32.131  0.00  0.00    +0.000 OA
BRANCH  15  17
ATOM     17  C   UNL     1     -46.281  -2.869 -33.023  0.00  0.00    +0.000 C 
BRANCH  17  19
ATOM     18  C   UNL     1     -44.439  -1.291 -32.745  0.00  0.00    +0.000 C 
ATOM     19  C   UNL     1     -45.076  -2.155 -33.528  0.00  0.00    +0.000 C 
ENDBRANCH  17  19
ENDBRANCH  15  17
ENDBRANCH  11  14
ENDBRANCH   9  12
BRANCH   1  20
ATOM     20  C   UNL     1     -46.611  -7.867 -27.569  0.00  0.00    +0.000 C 
ATOM     21  N   UNL     1     -45.738  -8.846 -26.987  0.00  0.00    +0.000 NA
ATOM     22  O   UNL     1     -47.258  -8.126 -28.619  0.00  0.00    +0.000 OA
BRANCH  21  23
ATOM     23  C   UNL     1     -45.486 -10.172 -27.472  0.00  0.00    +0.000 A 
ATOM     24  C   UNL     1     -44.342 -10.401 -28.242  0.00  0.00    +0.000 A 
ATOM     25  C   UNL     1     -44.063 -11.681 -28.732  0.00  0.00    +0.000 A 
ATOM     26  C   UNL     1     -44.930 -12.740 -28.452  0.00  0.00    +0.000 A 
ATOM     27  C   UNL     1     -46.076 -12.521 -27.683  0.00  0.00    +0.000 A 
ATOM     28  C   UNL     1     -46.353 -11.241 -27.195  0.00  0.00    +0.000 A 
ATOM     29 CL   UNL     1     -44.581 -14.342 -29.066  0.00  0.00    +0.000 Cl
ENDBRANCH  21  23
ENDBRANCH   1  20
TORSDOF 6
ENDMDL
MODEL 3
REMARK VINA RESULT:      -6.2     13.449     17.047
REMARK  Name = ZINC000408606915 PubChem-125618295
REMARK  6 active torsions:
REMARK  status: ('A' for Active; 'I' for Inactive)
REMARK    1  A    between atoms: C_2  and  C_3
REMARK    2  A    between atoms: C_3  and  N_21
REMARK    3  A    between atoms: C_4  and  C_5
REMARK    4  A    between atoms: C_6  and  C_7
REMARK    5  A    between atoms: C_8  and  N_24
REMARK    6  A    between atoms: N_22  and  N_23
REMARK                            x       y       z     vdW  Elec       q    Type
REMARK                         _______ _______ _______ _____ _____    ______ ____
ROOT
ATOM      1  C   UNL     1     -44.775 -18.014 -23.698  0.00  0.00    +0.000 A 
ATOM      2  C   UNL     1     -45.381 -16.847 -23.225  0.00  0.00    +0.000 A 
ATOM      3  C   UNL     1     -45.392 -17.010 -21.853  0.00  0.00    +0.000 A 
ATOM      4  C   UNL     1     -45.833 -16.134 -20.864  0.00  0.00    +0.000 A 
ATOM      5  C   UNL     1     -45.667 -16.524 -19.522  0.00  0.00    +0.000 A 
ATOM      6  C   UNL     1     -45.054 -17.754 -19.206  0.00  0.00    +0.000 A 
ATOM      7  C   UNL     1     -44.614 -18.617 -20.224  0.00  0.00    +0.000 A 
ATOM      8  C   UNL     1     -44.819 -18.218 -21.547  0.00  0.00    +0.000 A 
ATOM      9  N   UNL     1     -44.457 -18.849 -22.678  0.00  0.00    +0.000 N 
ATOM     10 CL   UNL     1     -46.207 -15.465 -18.238  0.00  0.00    +0.000 Cl
ENDROOT
BRANCH   9  12
ATOM     11  C   UNL     1     -42.314 -20.145 -22.807  0.00  0.00    +0.000 C 
ATOM     12  N   UNL     1     -43.743 -20.057 -22.795  0.00  0.00    +0.000 NA
ATOM     13  O   UNL     1     -41.612 -19.168 -22.434  0.00  0.00    +0.000 OA
BRANCH  11  14
ATOM     14  C   UNL     1     -41.667 -21.400 -23.203  0.00  0.00    +0.000 C 
ATOM     15  N   UNL     1     -40.611 -21.382 -24.164  0.00  0.00    +0.000 NA
ATOM     16  O   UNL     1     -42.045 -22.491 -22.694  0.00  0.00    +0.000 OA
BRANCH  15  17
ATOM     17  C   UNL     1     -39.937 -22.597 -24.591  0.00  0.00    +0.000 C 
BRANCH  17  19
ATOM     18  C   UNL     1     -39.628 -21.274 -26.620  0.00  0.00    +0.000 C 
ATOM     19  C   UNL     1     -39.471 -22.437 -25.996  0.00  0.00    +0.000 C 
ENDBRANCH  17  19
ENDBRANCH  15  17
ENDBRANCH  11  14
ENDBRANCH   9  12
BRANCH   1  20
ATOM     20  C   UNL     1     -44.522 -18.290 -25.124  0.00  0.00    +0.000 C 
ATOM     21  N   UNL     1     -43.191 -18.145 -25.642  0.00  0.00    +0.000 NA
ATOM     22  O   UNL     1     -45.468 -18.648 -25.876  0.00  0.00    +0.000 OA
BRANCH  21  23
ATOM     23  C   UNL     1     -42.763 -18.371 -26.992  0.00  0.00    +0.000 A 
ATOM     24  C   UNL     1     -42.768 -19.678 -27.489  0.00  0.00    +0.000 A 
ATOM     25  C   UNL     1     -42.358 -19.938 -28.800  0.00  0.00    +0.000 A 
ATOM     26  C   UNL     1     -41.940 -18.888 -29.623  0.00  0.00    +0.000 A 
ATOM     27  C   UNL     1     -41.932 -17.579 -29.134  0.00  0.00    +0.000 A 
ATOM     28  C   UNL     1     -42.342 -17.321 -27.823  0.00  0.00    +0.000 A 
ATOM     29 CL   UNL     1     -41.426 -19.213 -31.264  0.00  0.00    +0.000 Cl
ENDBRANCH  21  23
ENDBRANCH   1  20
TORSDOF 6
ENDMDL
