MODEL 1
REMARK VINA RESULT:      -6.0      0.000      0.000
REMARK  Name = ZINC000072242290 ZINC72242290 PubChem-95740501
REMARK  4 active torsions:
REMARK  status: ('A' for Active; 'I' for Inactive)
REMARK    1  A    between atoms: C_5  and  C_6
REMARK    2  A    between atoms: C_6  and  N_22
REMARK    3  A    between atoms: C_7  and  C_8
REMARK    4  A    between atoms: C_11  and  C_12
REMARK                            x       y       z     vdW  Elec       q    Type
REMARK                         _______ _______ _______ _____ _____    ______ ____
ROOT
ATOM      1  C   UNL     1     -45.686  -5.517 -31.121  0.00  0.00    +0.000 C 
ATOM      2  C   UNL     1     -46.388  -6.690 -31.818  0.00  0.00    +0.000 C 
ATOM      3  C   UNL     1     -45.439  -7.064 -32.886  0.00  0.00    +0.000 C 
ATOM      4  C   UNL     1     -44.310  -5.331 -31.788  0.00  0.00    +0.000 C 
ATOM      5  C   UNL     1     -43.082  -6.562 -33.677  0.00  0.00    +0.000 C 
ATOM      6  O   UNL     1     -45.643  -7.994 -33.708  0.00  0.00    +0.000 OA
ATOM      7  N   UNL     1     -44.271  -6.271 -32.891  0.00  0.00    +0.000 N 
ENDROOT
BRANCH   4   8
ATOM      8  C   UNL     1     -44.135  -3.922 -32.269  0.00  0.00    +0.000 A 
ATOM      9  C   UNL     1     -45.124  -3.350 -33.074  0.00  0.00    +0.000 A 
ATOM     10  C   UNL     1     -44.984  -2.036 -33.534  0.00  0.00    +0.000 A 
ATOM     11  C   UNL     1     -43.852  -1.291 -33.189  0.00  0.00    +0.000 A 
ATOM     12  C   UNL     1     -42.860  -1.859 -32.385  0.00  0.00    +0.000 A 
ATOM     13  C   UNL     1     -42.999  -3.172 -31.926  0.00  0.00    +0.000 A 
ATOM     14  F   UNL     1     -43.722  -0.018 -33.629  0.00  0.00    +0.000 F 
ENDBRANCH   4   8
BRANCH   1  15
ATOM     15  C   UNL     1     -45.526  -5.783 -29.661  0.00  0.00    +0.000 C 
ATOM     16  O   UNL     1     -44.367  -5.902 -29.180  0.00  0.00    +0.000 OA
ATOM     17  N   UNL     1     -46.676  -5.911 -28.822  0.00  0.00    +0.000 NA
BRANCH  17  18
ATOM     18  C   UNL     1     -46.564  -6.182 -27.398  0.00  0.00    +0.000 C 
BRANCH  18  23
ATOM     19  C   UNL     1     -47.342  -3.179 -23.590  0.00  0.00    +0.000 C 
ATOM     20  C   UNL     1     -47.220  -3.656 -24.994  0.00  0.00    +0.000 A 
ATOM     21  C   UNL     1     -47.440  -2.883 -26.117  0.00  0.00    +0.000 A 
ATOM     22  C   UNL     1     -47.219  -3.731 -27.191  0.00  0.00    +0.000 A 
ATOM     23  C   UNL     1     -46.877  -4.946 -26.630  0.00  0.00    +0.000 A 
ATOM     24  O   UNL     1     -46.888  -4.879 -25.323  0.00  0.00    +0.000 OA
ENDBRANCH  18  23
ENDBRANCH  17  18
ENDBRANCH   1  15
TORSDOF 4
ENDMDL
MODEL 2
REMARK VINA RESULT:      -6.0     13.625     16.965
REMARK  Name = ZINC000072242290 ZINC72242290 PubChem-95740501
REMARK  4 active torsions:
REMARK  status: ('A' for Active; 'I' for Inactive)
REMARK    1  A    between atoms: C_5  and  C_6
REMARK    2  A    between atoms: C_6  and  N_22
REMARK    3  A    between atoms: C_7  and  C_8
REMARK    4  A    between atoms: C_11  and  C_12
REMARK                            x       y       z     vdW  Elec       q    Type
REMARK                         _______ _______ _______ _____ _____    ______ ____
ROOT
ATOM      1  C   UNL     1     -46.514 -15.288 -20.088  0.00  0.00    +0.000 C 
ATOM      2  C   UNL     1     -47.350 -14.306 -19.257  0.00  0.00    +0.000 C 
ATOM      3  C   UNL     1     -46.459 -13.977 -18.127  0.00  0.00    +0.000 C 
ATOM      4  C   UNL     1     -45.131 -15.408 -19.420  0.00  0.00    +0.000 C 
ATOM      5  C   UNL     1     -44.067 -14.316 -17.354  0.00  0.00    +0.000 C 
ATOM      6  O   UNL     1     -46.775 -13.197 -17.192  0.00  0.00    +0.000 OA
ATOM      7  N   UNL     1     -45.208 -14.628 -18.199  0.00  0.00    +0.000 N 
ENDROOT
BRANCH   4   8
ATOM      8  C   UNL     1     -44.801 -16.841 -19.128  0.00  0.00    +0.000 A 
ATOM      9  C   UNL     1     -43.510 -17.168 -18.698  0.00  0.00    +0.000 A 
ATOM     10  C   UNL     1     -43.178 -18.497 -18.417  0.00  0.00    +0.000 A 
ATOM     11  C   UNL     1     -44.137 -19.504 -18.566  0.00  0.00    +0.000 A 
ATOM     12  C   UNL     1     -45.427 -19.182 -18.996  0.00  0.00    +0.000 A 
ATOM     13  C   UNL     1     -45.760 -17.854 -19.278  0.00  0.00    +0.000 A 
ATOM     14  F   UNL     1     -43.816 -20.789 -18.287  0.00  0.00    +0.000 F 
ENDBRANCH   4   8
BRANCH   1  15
ATOM     15  C   UNL     1     -46.372 -14.810 -21.495  0.00  0.00    +0.000 C 
ATOM     16  O   UNL     1     -46.687 -13.623 -21.778  0.00  0.00    +0.000 OA
ATOM     17  N   UNL     1     -45.894 -15.695 -22.511  0.00  0.00    +0.000 NA
BRANCH  17  18
ATOM     18  C   UNL     1     -45.753 -15.274 -23.895  0.00  0.00    +0.000 C 
BRANCH  18  23
ATOM     19  C   UNL     1     -45.092 -19.924 -25.330  0.00  0.00    +0.000 C 
ATOM     20  C   UNL     1     -45.060 -18.437 -25.345  0.00  0.00    +0.000 A 
ATOM     21  C   UNL     1     -44.513 -17.665 -26.353  0.00  0.00    +0.000 A 
ATOM     22  C   UNL     1     -44.702 -16.352 -25.947  0.00  0.00    +0.000 A 
ATOM     23  C   UNL     1     -45.352 -16.437 -24.731  0.00  0.00    +0.000 A 
ATOM     24  O   UNL     1     -45.551 -17.686 -24.392  0.00  0.00    +0.000 OA
ENDBRANCH  18  23
ENDBRANCH  17  18
ENDBRANCH   1  15
TORSDOF 4
ENDMDL
MODEL 3
REMARK VINA RESULT:      -5.9      3.252      6.961
REMARK  Name = ZINC000072242290 ZINC72242290 PubChem-95740501
REMARK  4 active torsions:
REMARK  status: ('A' for Active; 'I' for Inactive)
REMARK    1  A    between atoms: C_5  and  C_6
REMARK    2  A    between atoms: C_6  and  N_22
REMARK    3  A    between atoms: C_7  and  C_8
REMARK    4  A    between atoms: C_11  and  C_12
REMARK                            x       y       z     vdW  Elec       q    Type
REMARK                         _______ _______ _______ _____ _____    ______ ____
ROOT
ATOM      1  C   UNL     1     -46.973  -4.951 -30.238  0.00  0.00    +0.000 C 
ATOM      2  C   UNL     1     -47.501  -4.495 -28.871  0.00  0.00    +0.000 C 
ATOM      3  C   UNL     1     -46.604  -5.178 -27.919  0.00  0.00    +0.000 C 
ATOM      4  C   UNL     1     -45.727  -5.822 -29.992  0.00  0.00    +0.000 C 
ATOM      5  C   UNL     1     -44.471  -6.551 -27.875  0.00  0.00    +0.000 C 
ATOM      6  O   UNL     1     -46.704  -5.077 -26.669  0.00  0.00    +0.000 OA
ATOM      7  N   UNL     1     -45.614  -5.960 -28.553  0.00  0.00    +0.000 N 
ENDROOT
BRANCH   4   8
ATOM      8  C   UNL     1     -45.870  -7.159 -30.656  0.00  0.00    +0.000 A 
ATOM      9  C   UNL     1     -44.795  -7.673 -31.388  0.00  0.00    +0.000 A 
ATOM     10  C   UNL     1     -44.903  -8.919 -32.015  0.00  0.00    +0.000 A 
ATOM     11  C   UNL     1     -46.087  -9.654 -31.910  0.00  0.00    +0.000 A 
ATOM     12  C   UNL     1     -47.164  -9.144 -31.180  0.00  0.00    +0.000 A 
ATOM     13  C   UNL     1     -47.058  -7.899 -30.554  0.00  0.00    +0.000 A 
ATOM     14  F   UNL     1     -46.187 -10.863 -32.511  0.00  0.00    +0.000 F 
ENDBRANCH   4   8
BRANCH   1  15
ATOM     15  C   UNL     1     -46.627  -3.778 -31.094  0.00  0.00    +0.000 C 
ATOM     16  O   UNL     1     -46.319  -2.685 -30.548  0.00  0.00    +0.000 OA
ATOM     17  N   UNL     1     -46.657  -3.893 -32.519  0.00  0.00    +0.000 NA
BRANCH  17  18
ATOM     18  C   UNL     1     -46.339  -2.773 -33.389  0.00  0.00    +0.000 C 
BRANCH  18  23
ATOM     19  C   UNL     1     -41.610  -3.959 -33.983  0.00  0.00    +0.000 C 
ATOM     20  C   UNL     1     -42.828  -3.139 -33.743  0.00  0.00    +0.000 A 
ATOM     21  C   UNL     1     -42.832  -1.780 -33.494  0.00  0.00    +0.000 A 
ATOM     22  C   UNL     1     -44.168  -1.446 -33.328  0.00  0.00    +0.000 A 
ATOM     23  C   UNL     1     -44.862  -2.629 -33.495  0.00  0.00    +0.000 A 
ATOM     24  O   UNL     1     -44.044  -3.622 -33.737  0.00  0.00    +0.000 OA
ENDBRANCH  18  23
ENDBRANCH  17  18
ENDBRANCH   1  15
TORSDOF 4
ENDMDL
