MODEL 1
REMARK VINA RESULT:      -6.5      0.000      0.000
REMARK  Name = ZINC000072335160 ZINC72335160 PubChem-95797839
REMARK  4 active torsions:
REMARK  status: ('A' for Active; 'I' for Inactive)
REMARK    1  A    between atoms: C_3  and  C_6
REMARK    2  A    between atoms: C_8  and  C_10
REMARK    3  A    between atoms: C_11  and  C_12
REMARK    4  A    between atoms: C_11  and  N_22
REMARK                            x       y       z     vdW  Elec       q    Type
REMARK                         _______ _______ _______ _____ _____    ______ ____
ROOT
ATOM      1  C   UNL     1     -47.012  -9.746 -29.320  0.00  0.00    +0.000 C 
ATOM      2  C   UNL     1     -47.361  -8.265 -29.501  0.00  0.00    +0.000 C 
ATOM      3  C   UNL     1     -46.236  -7.345 -29.023  0.00  0.00    +0.000 C 
ATOM      4  C   UNL     1     -43.986  -6.638 -29.363  0.00  0.00    +0.000 C 
ATOM      5  N   UNL     1     -45.071  -7.446 -29.911  0.00  0.00    +0.000 NA
ATOM      6  N   UNL     1     -45.872 -10.156 -30.147  0.00  0.00    +0.000 NA
ATOM      7  S   UNL     1     -44.518  -9.093 -29.901  0.00  0.00    +0.000 S 
ATOM      8  O   UNL     1     -43.533  -9.292 -31.018  0.00  0.00    +0.000 OA
ATOM      9  O   UNL     1     -43.851  -9.418 -28.592  0.00  0.00    +0.000 OA
ENDROOT
BRANCH   1  12
ATOM     10  C   UNL     1     -46.977 -12.741 -28.157  0.00  0.00    +0.000 C 
ATOM     11  C   UNL     1     -46.832 -11.477 -27.384  0.00  0.00    +0.000 A 
ATOM     12  C   UNL     1     -46.883 -10.184 -27.882  0.00  0.00    +0.000 A 
ATOM     13  C   UNL     1     -46.608  -9.367 -26.797  0.00  0.00    +0.000 A 
ATOM     14  C   UNL     1     -46.157  -9.719 -24.382  0.00  0.00    +0.000 C 
ATOM     15  N   UNL     1     -46.453 -10.171 -25.729  0.00  0.00    +0.000 N 
ATOM     16  N   UNL     1     -46.577 -11.443 -26.065  0.00  0.00    +0.000 NA
ENDBRANCH   1  12
BRANCH   3  17
ATOM     17  C   UNL     1     -46.767  -5.943 -28.984  0.00  0.00    +0.000 C 
ATOM     18  N   UNL     1     -46.947  -5.278 -27.731  0.00  0.00    +0.000 NA
ATOM     19  O   UNL     1     -47.058  -5.362 -30.063  0.00  0.00    +0.000 OA
BRANCH  18  20
ATOM     20  C   UNL     1     -47.463  -3.921 -27.648  0.00  0.00    +0.000 C 
BRANCH  20  21
ATOM     21  C   UNL     1     -47.407  -3.451 -26.237  0.00  0.00    +0.000 A 
ATOM     22  C   UNL     1     -47.386  -2.080 -25.957  0.00  0.00    +0.000 A 
ATOM     23  C   UNL     1     -47.310  -1.637 -24.633  0.00  0.00    +0.000 A 
ATOM     24  C   UNL     1     -47.250  -2.565 -23.588  0.00  0.00    +0.000 A 
ATOM     25  C   UNL     1     -47.262  -3.935 -23.868  0.00  0.00    +0.000 A 
ATOM     26  C   UNL     1     -47.339  -4.377 -25.192  0.00  0.00    +0.000 A 
ATOM     27  F   UNL     1     -47.176  -2.136 -22.305  0.00  0.00    +0.000 F 
ENDBRANCH  20  21
ENDBRANCH  18  20
ENDBRANCH   3  17
TORSDOF 4
ENDMDL
MODEL 2
REMARK VINA RESULT:      -6.3      3.579      4.602
REMARK  Name = ZINC000072335160 ZINC72335160 PubChem-95797839
REMARK  4 active torsions:
REMARK  status: ('A' for Active; 'I' for Inactive)
REMARK    1  A    between atoms: C_3  and  C_6
REMARK    2  A    between atoms: C_8  and  C_10
REMARK    3  A    between atoms: C_11  and  C_12
REMARK    4  A    between atoms: C_11  and  N_22
REMARK                            x       y       z     vdW  Elec       q    Type
REMARK                         _______ _______ _______ _____ _____    ______ ____
ROOT
ATOM      1  C   UNL     1     -46.734  -9.494 -29.200  0.00  0.00    +0.000 C 
ATOM      2  C   UNL     1     -47.127  -8.130 -29.778  0.00  0.00    +0.000 C 
ATOM      3  C   UNL     1     -46.224  -7.005 -29.269  0.00  0.00    +0.000 C 
ATOM      4  C   UNL     1     -44.013  -6.115 -29.229  0.00  0.00    +0.000 C 
ATOM      5  N   UNL     1     -44.869  -7.139 -29.820  0.00  0.00    +0.000 NA
ATOM      6  N   UNL     1     -45.398  -9.919 -29.631  0.00  0.00    +0.000 NA
ATOM      7  S   UNL     1     -44.225  -8.673 -29.321  0.00  0.00    +0.000 S 
ATOM      8  O   UNL     1     -42.980  -8.969 -30.109  0.00  0.00    +0.000 OA
ATOM      9  O   UNL     1     -43.887  -8.651 -27.855  0.00  0.00    +0.000 OA
ENDROOT
BRANCH   1  12
ATOM     10  C   UNL     1     -46.811 -12.176 -27.433  0.00  0.00    +0.000 C 
ATOM     11  C   UNL     1     -46.937 -10.776 -26.944  0.00  0.00    +0.000 A 
ATOM     12  C   UNL     1     -46.940  -9.621 -27.711  0.00  0.00    +0.000 A 
ATOM     13  C   UNL     1     -46.991  -8.580 -26.798  0.00  0.00    +0.000 A 
ATOM     14  C   UNL     1     -47.133  -8.395 -24.327  0.00  0.00    +0.000 C 
ATOM     15  N   UNL     1     -47.058  -9.134 -25.573  0.00  0.00    +0.000 N 
ATOM     16  N   UNL     1     -47.020 -10.454 -25.642  0.00  0.00    +0.000 NA
ENDBRANCH   1  12
BRANCH   3  17
ATOM     17  C   UNL     1     -46.842  -5.698 -29.663  0.00  0.00    +0.000 C 
ATOM     18  N   UNL     1     -46.771  -5.248 -31.018  0.00  0.00    +0.000 NA
ATOM     19  O   UNL     1     -47.418  -4.998 -28.787  0.00  0.00    +0.000 OA
BRANCH  18  20
ATOM     20  C   UNL     1     -47.352  -3.985 -31.441  0.00  0.00    +0.000 C 
BRANCH  20  21
ATOM     21  C   UNL     1     -46.281  -3.086 -31.949  0.00  0.00    +0.000 A 
ATOM     22  C   UNL     1     -45.640  -2.200 -31.076  0.00  0.00    +0.000 A 
ATOM     23  C   UNL     1     -44.649  -1.338 -31.556  0.00  0.00    +0.000 A 
ATOM     24  C   UNL     1     -44.303  -1.357 -32.912  0.00  0.00    +0.000 A 
ATOM     25  C   UNL     1     -44.950  -2.236 -33.786  0.00  0.00    +0.000 A 
ATOM     26  C   UNL     1     -45.940  -3.098 -33.305  0.00  0.00    +0.000 A 
ATOM     27  F   UNL     1     -43.344  -0.522 -33.378  0.00  0.00    +0.000 F 
ENDBRANCH  20  21
ENDBRANCH  18  20
ENDBRANCH   3  17
TORSDOF 4
ENDMDL
MODEL 3
REMARK VINA RESULT:      -6.1      7.647     10.810
REMARK  Name = ZINC000072335160 ZINC72335160 PubChem-95797839
REMARK  4 active torsions:
REMARK  status: ('A' for Active; 'I' for Inactive)
REMARK    1  A    between atoms: C_3  and  C_6
REMARK    2  A    between atoms: C_8  and  C_10
REMARK    3  A    between atoms: C_11  and  C_12
REMARK    4  A    between atoms: C_11  and  N_22
REMARK                            x       y       z     vdW  Elec       q    Type
REMARK                         _______ _______ _______ _____ _____    ______ ____
ROOT
ATOM      1  C   UNL     1     -45.568 -19.043 -24.059  0.00  0.00    +0.000 C 
ATOM      2  C   UNL     1     -45.794 -17.573 -24.429  0.00  0.00    +0.000 C 
ATOM      3  C   UNL     1     -44.550 -16.938 -25.052  0.00  0.00    +0.000 C 
ATOM      4  C   UNL     1     -43.040 -16.952 -26.897  0.00  0.00    +0.000 C 
ATOM      5  N   UNL     1     -44.290 -17.503 -26.382  0.00  0.00    +0.000 NA
ATOM      6  N   UNL     1     -45.318 -19.884 -25.233  0.00  0.00    +0.000 NA
ATOM      7  S   UNL     1     -44.044 -19.215 -26.211  0.00  0.00    +0.000 S 
ATOM      8  O   UNL     1     -44.080 -19.860 -27.567  0.00  0.00    +0.000 OA
ATOM      9  O   UNL     1     -42.714 -19.494 -25.566  0.00  0.00    +0.000 OA
ENDROOT
BRANCH   1  12
ATOM     10  C   UNL     1     -45.793 -18.177 -20.972  0.00  0.00    +0.000 C 
ATOM     11  C   UNL     1     -44.674 -18.917 -21.617  0.00  0.00    +0.000 A 
ATOM     12  C   UNL     1     -44.561 -19.258 -22.956  0.00  0.00    +0.000 A 
ATOM     13  C   UNL     1     -43.399 -20.008 -23.042  0.00  0.00    +0.000 A 
ATOM     14  C   UNL     1     -41.631 -20.725 -21.454  0.00  0.00    +0.000 C 
ATOM     15  N   UNL     1     -42.862 -20.045 -21.808  0.00  0.00    +0.000 N 
ATOM     16  N   UNL     1     -43.620 -19.400 -20.937  0.00  0.00    +0.000 NA
ENDBRANCH   1  12
BRANCH   3  17
ATOM     17  C   UNL     1     -44.772 -15.457 -25.128  0.00  0.00    +0.000 C 
ATOM     18  N   UNL     1     -45.861 -14.931 -25.890  0.00  0.00    +0.000 NA
ATOM     19  O   UNL     1     -43.986 -14.683 -24.518  0.00  0.00    +0.000 OA
BRANCH  18  20
ATOM     20  C   UNL     1     -46.109 -13.503 -25.992  0.00  0.00    +0.000 C 
BRANCH  20  21
ATOM     21  C   UNL     1     -46.129 -13.100 -27.425  0.00  0.00    +0.000 A 
ATOM     22  C   UNL     1     -45.545 -13.926 -28.392  0.00  0.00    +0.000 A 
ATOM     23  C   UNL     1     -45.542 -13.537 -29.735  0.00  0.00    +0.000 A 
ATOM     24  C   UNL     1     -46.120 -12.319 -30.111  0.00  0.00    +0.000 A 
ATOM     25  C   UNL     1     -46.696 -11.490 -29.144  0.00  0.00    +0.000 A 
ATOM     26  C   UNL     1     -46.699 -11.879 -27.801  0.00  0.00    +0.000 A 
ATOM     27  F   UNL     1     -46.117 -11.942 -31.413  0.00  0.00    +0.000 F 
ENDBRANCH  20  21
ENDBRANCH  18  20
ENDBRANCH   3  17
TORSDOF 4
ENDMDL
