MODEL 1
REMARK VINA RESULT:      -6.1      0.000      0.000
REMARK  Name = ZINC000005348225 PubChem-7643528
REMARK  7 active torsions:
REMARK  status: ('A' for Active; 'I' for Inactive)
REMARK    1  A    between atoms: C_5  and  C_8
REMARK    2  A    between atoms: C_8  and  C_9
REMARK    3  A    between atoms: C_8  and  C_15
REMARK    4  A    between atoms: C_9  and  C_10
REMARK    5  A    between atoms: C_11  and  C_12
REMARK    6  A    between atoms: C_11  and  N_24
REMARK    7  A    between atoms: C_12  and  N_25
REMARK                            x       y       z     vdW  Elec       q    Type
REMARK                         _______ _______ _______ _____ _____    ______ ____
ROOT
ATOM      1  C   UNL     1     -44.574 -18.402 -22.830  0.00  0.00    +0.000 C 
ENDROOT
BRANCH   1   2
ATOM      2  C   UNL     1     -43.739 -19.628 -22.425  0.00  0.00    +0.000 C 
ATOM      3  C   UNL     1     -43.438 -20.535 -23.626  0.00  0.00    +0.000 C 
ATOM      4  C   UNL     1     -42.167 -21.360 -23.403  0.00  0.00    +0.000 C 
ATOM      5  C   UNL     1     -41.608 -20.455 -21.344  0.00  0.00    +0.000 C 
ATOM      6  C   UNL     1     -42.429 -19.215 -21.750  0.00  0.00    +0.000 C 
ATOM      7  C   UNL     1     -41.816 -20.683 -19.860  0.00  0.00    +0.000 C 
ATOM      8  C   UNL     1     -40.131 -20.174 -21.568  0.00  0.00    +0.000 C 
ATOM      9  O   UNL     1     -41.994 -21.640 -22.030  0.00  0.00    +0.000 OA
ENDBRANCH   1   2
BRANCH   1  14
ATOM     10  C   UNL     1     -47.235 -15.937 -18.320  0.00  0.00    +0.000 C 
ATOM     11  C   UNL     1     -46.555 -16.577 -19.475  0.00  0.00    +0.000 A 
ATOM     12  C   UNL     1     -46.522 -17.970 -19.582  0.00  0.00    +0.000 A 
ATOM     13  C   UNL     1     -45.881 -18.573 -20.669  0.00  0.00    +0.000 A 
ATOM     14  C   UNL     1     -45.268 -17.782 -21.653  0.00  0.00    +0.000 A 
ATOM     15  C   UNL     1     -45.306 -16.387 -21.542  0.00  0.00    +0.000 A 
ATOM     16  C   UNL     1     -45.947 -15.786 -20.455  0.00  0.00    +0.000 A 
ENDBRANCH   1  14
BRANCH   1  17
ATOM     17  C   UNL     1     -45.608 -18.746 -23.902  0.00  0.00    +0.000 C 
BRANCH  17  18
ATOM     18  C   UNL     1     -45.249 -18.116 -25.204  0.00  0.00    +0.000 C 
ATOM     19  O   UNL     1     -45.152 -18.827 -26.242  0.00  0.00    +0.000 OA
ATOM     20  N   UNL     1     -45.006 -16.711 -25.261  0.00  0.00    +0.000 NA
BRANCH  20  21
ATOM     21  C   UNL     1     -44.660 -16.039 -26.504  0.00  0.00    +0.000 C 
BRANCH  21  22
ATOM     22  C   UNL     1     -44.373 -14.571 -26.235  0.00  0.00    +0.000 C 
BRANCH  22  25
ATOM     23  C   UNL     1     -44.264 -14.610 -28.569  0.00  0.00    +0.000 C 
ATOM     24  C   UNL     1     -46.059 -13.583 -27.504  0.00  0.00    +0.000 C 
ATOM     25  N   UNL     1     -44.623 -13.783 -27.431  0.00  0.00    +0.000 NA
ENDBRANCH  22  25
ENDBRANCH  21  22
ENDBRANCH  20  21
ENDBRANCH  17  18
ENDBRANCH   1  17
TORSDOF 7
ENDMDL
MODEL 2
REMARK VINA RESULT:      -6.1      1.861      2.954
REMARK  Name = ZINC000005348225 PubChem-7643528
REMARK  7 active torsions:
REMARK  status: ('A' for Active; 'I' for Inactive)
REMARK    1  A    between atoms: C_5  and  C_8
REMARK    2  A    between atoms: C_8  and  C_9
REMARK    3  A    between atoms: C_8  and  C_15
REMARK    4  A    between atoms: C_9  and  C_10
REMARK    5  A    between atoms: C_11  and  C_12
REMARK    6  A    between atoms: C_11  and  N_24
REMARK    7  A    between atoms: C_12  and  N_25
REMARK                            x       y       z     vdW  Elec       q    Type
REMARK                         _______ _______ _______ _____ _____    ______ ____
ROOT
ATOM      1  C   UNL     1     -45.254 -16.455 -23.544  0.00  0.00    +0.000 C 
ENDROOT
BRANCH   1   2
ATOM      2  C   UNL     1     -44.865 -17.935 -23.693  0.00  0.00    +0.000 C 
ATOM      3  C   UNL     1     -45.825 -18.686 -24.626  0.00  0.00    +0.000 C 
ATOM      4  C   UNL     1     -45.151 -19.907 -25.261  0.00  0.00    +0.000 C 
ATOM      5  C   UNL     1     -43.052 -19.578 -24.335  0.00  0.00    +0.000 C 
ATOM      6  C   UNL     1     -43.428 -18.089 -24.199  0.00  0.00    +0.000 C 
ATOM      7  C   UNL     1     -42.225 -19.960 -23.125  0.00  0.00    +0.000 C 
ATOM      8  C   UNL     1     -42.185 -19.766 -25.569  0.00  0.00    +0.000 C 
ATOM      9  O   UNL     1     -44.180 -20.444 -24.389  0.00  0.00    +0.000 OA
ENDBRANCH   1   2
BRANCH   1  14
ATOM     10  C   UNL     1     -46.886 -15.256 -18.122  0.00  0.00    +0.000 C 
ATOM     11  C   UNL     1     -46.468 -15.556 -19.516  0.00  0.00    +0.000 A 
ATOM     12  C   UNL     1     -46.594 -14.580 -20.509  0.00  0.00    +0.000 A 
ATOM     13  C   UNL     1     -46.201 -14.862 -21.820  0.00  0.00    +0.000 A 
ATOM     14  C   UNL     1     -45.683 -16.126 -22.145  0.00  0.00    +0.000 A 
ATOM     15  C   UNL     1     -45.558 -17.099 -21.146  0.00  0.00    +0.000 A 
ATOM     16  C   UNL     1     -45.950 -16.815 -19.835  0.00  0.00    +0.000 A 
ENDBRANCH   1  14
BRANCH   1  17
ATOM     17  C   UNL     1     -46.360 -16.056 -24.519  0.00  0.00    +0.000 C 
BRANCH  17  18
ATOM     18  C   UNL     1     -45.836 -15.133 -25.566  0.00  0.00    +0.000 C 
ATOM     19  O   UNL     1     -44.872 -15.492 -26.296  0.00  0.00    +0.000 OA
ATOM     20  N   UNL     1     -46.425 -13.843 -25.723  0.00  0.00    +0.000 NA
BRANCH  20  21
ATOM     21  C   UNL     1     -45.962 -12.903 -26.731  0.00  0.00    +0.000 C 
BRANCH  21  22
ATOM     22  C   UNL     1     -46.930 -12.882 -27.902  0.00  0.00    +0.000 C 
BRANCH  22  25
ATOM     23  C   UNL     1     -45.348 -11.478 -28.896  0.00  0.00    +0.000 C 
ATOM     24  C   UNL     1     -45.347 -13.756 -29.371  0.00  0.00    +0.000 C 
ATOM     25  N   UNL     1     -46.216 -12.616 -29.141  0.00  0.00    +0.000 NA
ENDBRANCH  22  25
ENDBRANCH  21  22
ENDBRANCH  20  21
ENDBRANCH  17  18
ENDBRANCH   1  17
TORSDOF 7
ENDMDL
MODEL 3
REMARK VINA RESULT:      -6.0     11.064     14.411
REMARK  Name = ZINC000005348225 PubChem-7643528
REMARK  7 active torsions:
REMARK  status: ('A' for Active; 'I' for Inactive)
REMARK    1  A    between atoms: C_5  and  C_8
REMARK    2  A    between atoms: C_8  and  C_9
REMARK    3  A    between atoms: C_8  and  C_15
REMARK    4  A    between atoms: C_9  and  C_10
REMARK    5  A    between atoms: C_11  and  C_12
REMARK    6  A    between atoms: C_11  and  N_24
REMARK    7  A    between atoms: C_12  and  N_25
REMARK                            x       y       z     vdW  Elec       q    Type
REMARK                         _______ _______ _______ _____ _____    ______ ____
ROOT
ATOM      1  C   UNL     1     -46.361  -5.696 -29.055  0.00  0.00    +0.000 C 
ENDROOT
BRANCH   1   2
ATOM      2  C   UNL     1     -46.949  -7.080 -29.380  0.00  0.00    +0.000 C 
ATOM      3  C   UNL     1     -47.711  -7.077 -30.713  0.00  0.00    +0.000 C 
ATOM      4  C   UNL     1     -47.756  -8.475 -31.337  0.00  0.00    +0.000 C 
ATOM      5  C   UNL     1     -46.469  -9.538 -29.729  0.00  0.00    +0.000 C 
ATOM      6  C   UNL     1     -45.862  -8.157 -29.410  0.00  0.00    +0.000 C 
ATOM      7  C   UNL     1     -46.603 -10.298 -28.425  0.00  0.00    +0.000 C 
ATOM      8  C   UNL     1     -45.514 -10.312 -30.622  0.00  0.00    +0.000 C 
ATOM      9  O   UNL     1     -47.756  -9.465 -30.331  0.00  0.00    +0.000 OA
ENDBRANCH   1   2
BRANCH   1  14
ATOM     10  C   UNL     1     -47.534  -4.014 -23.643  0.00  0.00    +0.000 C 
ATOM     11  C   UNL     1     -47.231  -4.454 -25.030  0.00  0.00    +0.000 A 
ATOM     12  C   UNL     1     -46.630  -5.695 -25.253  0.00  0.00    +0.000 A 
ATOM     13  C   UNL     1     -46.344  -6.108 -26.558  0.00  0.00    +0.000 A 
ATOM     14  C   UNL     1     -46.656  -5.278 -27.645  0.00  0.00    +0.000 A 
ATOM     15  C   UNL     1     -47.260  -4.035 -27.415  0.00  0.00    +0.000 A 
ATOM     16  C   UNL     1     -47.546  -3.624 -26.111  0.00  0.00    +0.000 A 
ENDBRANCH   1  14
BRANCH   1  17
ATOM     17  C   UNL     1     -46.866  -4.622 -30.017  0.00  0.00    +0.000 C 
BRANCH  17  18
ATOM     18  C   UNL     1     -45.726  -3.889 -30.638  0.00  0.00    +0.000 C 
ATOM     19  O   UNL     1     -44.600  -4.447 -30.743  0.00  0.00    +0.000 OA
ATOM     20  N   UNL     1     -45.919  -2.552 -31.098  0.00  0.00    +0.000 NA
BRANCH  20  21
ATOM     21  C   UNL     1     -44.849  -1.788 -31.718  0.00  0.00    +0.000 C 
BRANCH  21  22
ATOM     22  C   UNL     1     -44.905  -1.951 -33.227  0.00  0.00    +0.000 C 
BRANCH  22  25
ATOM     23  C   UNL     1     -42.717  -1.189 -32.917  0.00  0.00    +0.000 C 
ATOM     24  C   UNL     1     -43.100  -3.368 -33.637  0.00  0.00    +0.000 C 
ATOM     25  N   UNL     1     -43.560  -1.998 -33.779  0.00  0.00    +0.000 NA
ENDBRANCH  22  25
ENDBRANCH  21  22
ENDBRANCH  20  21
ENDBRANCH  17  18
ENDBRANCH   1  17
TORSDOF 7
ENDMDL
