MODEL 1
REMARK VINA RESULT:      -6.8      0.000      0.000
REMARK  Name = ZINC000253471412 PubChem-124891440
REMARK  7 active torsions:
REMARK  status: ('A' for Active; 'I' for Inactive)
REMARK    1  A    between atoms: C_5  and  C_6
REMARK    2  A    between atoms: C_6  and  C_7
REMARK    3  A    between atoms: C_6  and  C_17
REMARK    4  A    between atoms: C_7  and  C_8
REMARK    5  A    between atoms: C_9  and  C_10
REMARK    6  A    between atoms: C_9  and  N_32
REMARK    7  A    between atoms: C_10  and  C_11
REMARK                            x       y       z     vdW  Elec       q    Type
REMARK                         _______ _______ _______ _____ _____    ______ ____
ROOT
ATOM      1  C   UNL     1     -44.867 -15.520 -24.246  0.00  0.00    +0.000 C 
ENDROOT
BRANCH   1   6
ATOM      2  C   UNL     1     -42.980 -20.901 -23.470  0.00  0.00    +0.000 C 
ATOM      3  C   UNL     1     -43.501 -19.525 -23.681  0.00  0.00    +0.000 A 
ATOM      4  C   UNL     1     -44.741 -19.341 -24.289  0.00  0.00    +0.000 A 
ATOM      5  C   UNL     1     -45.212 -18.044 -24.478  0.00  0.00    +0.000 A 
ATOM      6  C   UNL     1     -44.433 -16.952 -24.050  0.00  0.00    +0.000 A 
ATOM      7  C   UNL     1     -43.191 -17.224 -23.450  0.00  0.00    +0.000 A 
ATOM      8  O   UNL     1     -46.449 -17.857 -25.084  0.00  0.00    +0.000 OA
ATOM      9  O   UNL     1     -42.452 -16.281 -23.058  0.00  0.00    +0.000 OA
ATOM     10  O   UNL     1     -42.780 -18.480 -23.289  0.00  0.00    +0.000 OA
ENDBRANCH   1   6
BRANCH   1  11
ATOM     11  C   UNL     1     -44.887 -15.117 -25.693  0.00  0.00    +0.000 A 
ATOM     12  C   UNL     1     -43.861 -15.586 -26.544  0.00  0.00    +0.000 A 
ATOM     13  C   UNL     1     -43.837 -15.229 -27.904  0.00  0.00    +0.000 A 
ATOM     14  C   UNL     1     -44.856 -14.402 -28.369  0.00  0.00    +0.000 A 
ATOM     15  C   UNL     1     -45.844 -13.949 -27.557  0.00  0.00    +0.000 A 
ATOM     16  C   UNL     1     -45.901 -14.281 -26.207  0.00  0.00    +0.000 A 
ATOM     17  C   UNL     1     -46.236 -13.107 -29.637  0.00  0.00    +0.000 C 
ATOM     18  O   UNL     1     -46.709 -13.156 -28.283  0.00  0.00    +0.000 OA
ATOM     19  O   UNL     1     -45.052 -13.916 -29.646  0.00  0.00    +0.000 OA
ENDBRANCH   1  11
BRANCH   1  20
ATOM     20  C   UNL     1     -46.158 -15.177 -23.503  0.00  0.00    +0.000 C 
BRANCH  20  21
ATOM     21  C   UNL     1     -45.873 -14.754 -22.102  0.00  0.00    +0.000 C 
ATOM     22  O   UNL     1     -44.731 -14.316 -21.796  0.00  0.00    +0.000 OA
ATOM     23  N   UNL     1     -46.902 -14.850 -21.119  0.00  0.00    +0.000 NA
BRANCH  23  24
ATOM     24  C   UNL     1     -46.690 -14.448 -19.738  0.00  0.00    +0.000 C 
BRANCH  24  25
ATOM     25  C   UNL     1     -46.944 -15.623 -18.806  0.00  0.00    +0.000 C 
BRANCH  25  26
ATOM     26  C   UNL     1     -46.067 -16.787 -19.138  0.00  0.00    +0.000 A 
ATOM     27  C   UNL     1     -46.650 -18.000 -19.519  0.00  0.00    +0.000 A 
ATOM     28  C   UNL     1     -45.841 -19.092 -19.853  0.00  0.00    +0.000 A 
ATOM     29  C   UNL     1     -44.449 -18.970 -19.812  0.00  0.00    +0.000 A 
ATOM     30  C   UNL     1     -43.865 -17.755 -19.441  0.00  0.00    +0.000 A 
ATOM     31  C   UNL     1     -44.671 -16.665 -19.107  0.00  0.00    +0.000 A 
ATOM     32  O   UNL     1     -43.648 -20.053 -20.142  0.00  0.00    +0.000 OA
ENDBRANCH  25  26
ENDBRANCH  24  25
ENDBRANCH  23  24
ENDBRANCH  20  21
ENDBRANCH   1  20
TORSDOF 7
ENDMDL
MODEL 2
REMARK VINA RESULT:      -6.6      3.377      5.324
REMARK  Name = ZINC000253471412 PubChem-124891440
REMARK  7 active torsions:
REMARK  status: ('A' for Active; 'I' for Inactive)
REMARK    1  A    between atoms: C_5  and  C_6
REMARK    2  A    between atoms: C_6  and  C_7
REMARK    3  A    between atoms: C_6  and  C_17
REMARK    4  A    between atoms: C_7  and  C_8
REMARK    5  A    between atoms: C_9  and  C_10
REMARK    6  A    between atoms: C_9  and  N_32
REMARK    7  A    between atoms: C_10  and  C_11
REMARK                            x       y       z     vdW  Elec       q    Type
REMARK                         _______ _______ _______ _____ _____    ______ ____
ROOT
ATOM      1  C   UNL     1     -42.813 -19.708 -25.581  0.00  0.00    +0.000 C 
ENDROOT
BRANCH   1   6
ATOM      2  C   UNL     1     -46.558 -15.391 -24.911  0.00  0.00    +0.000 C 
ATOM      3  C   UNL     1     -45.564 -16.481 -25.078  0.00  0.00    +0.000 A 
ATOM      4  C   UNL     1     -44.206 -16.174 -25.141  0.00  0.00    +0.000 A 
ATOM      5  C   UNL     1     -43.288 -17.211 -25.298  0.00  0.00    +0.000 A 
ATOM      6  C   UNL     1     -43.746 -18.539 -25.384  0.00  0.00    +0.000 A 
ATOM      7  C   UNL     1     -45.133 -18.762 -25.317  0.00  0.00    +0.000 A 
ATOM      8  O   UNL     1     -41.932 -16.908 -25.360  0.00  0.00    +0.000 OA
ATOM      9  O   UNL     1     -45.595 -19.932 -25.399  0.00  0.00    +0.000 OA
ATOM     10  O   UNL     1     -45.974 -17.742 -25.167  0.00  0.00    +0.000 OA
ENDBRANCH   1   6
BRANCH   1  11
ATOM     11  C   UNL     1     -42.158 -19.702 -26.933  0.00  0.00    +0.000 A 
ATOM     12  C   UNL     1     -40.756 -19.853 -27.010  0.00  0.00    +0.000 A 
ATOM     13  C   UNL     1     -40.101 -19.849 -28.254  0.00  0.00    +0.000 A 
ATOM     14  C   UNL     1     -40.885 -19.689 -29.393  0.00  0.00    +0.000 A 
ATOM     15  C   UNL     1     -42.233 -19.544 -29.325  0.00  0.00    +0.000 A 
ATOM     16  C   UNL     1     -42.916 -19.544 -28.113  0.00  0.00    +0.000 A 
ATOM     17  C   UNL     1     -41.653 -19.470 -31.527  0.00  0.00    +0.000 C 
ATOM     18  O   UNL     1     -42.746 -19.407 -30.599  0.00  0.00    +0.000 OA
ATOM     19  O   UNL     1     -40.485 -19.651 -30.713  0.00  0.00    +0.000 OA
ENDBRANCH   1  11
BRANCH   1  20
ATOM     20  C   UNL     1     -41.824 -19.887 -24.429  0.00  0.00    +0.000 C 
BRANCH  20  21
ATOM     21  C   UNL     1     -42.538 -20.122 -23.142  0.00  0.00    +0.000 C 
ATOM     22  O   UNL     1     -42.856 -21.293 -22.802  0.00  0.00    +0.000 OA
ATOM     23  N   UNL     1     -42.854 -19.011 -22.304  0.00  0.00    +0.000 NA
BRANCH  23  24
ATOM     24  C   UNL     1     -43.543 -19.174 -21.034  0.00  0.00    +0.000 C 
BRANCH  24  25
ATOM     25  C   UNL     1     -45.046 -19.059 -21.235  0.00  0.00    +0.000 C 
BRANCH  25  26
ATOM     26  C   UNL     1     -45.571 -17.760 -20.716  0.00  0.00    +0.000 A 
ATOM     27  C   UNL     1     -46.164 -17.714 -19.449  0.00  0.00    +0.000 A 
ATOM     28  C   UNL     1     -46.641 -16.501 -18.942  0.00  0.00    +0.000 A 
ATOM     29  C   UNL     1     -46.522 -15.331 -19.698  0.00  0.00    +0.000 A 
ATOM     30  C   UNL     1     -45.922 -15.372 -20.959  0.00  0.00    +0.000 A 
ATOM     31  C   UNL     1     -45.444 -16.583 -21.467  0.00  0.00    +0.000 A 
ATOM     32  O   UNL     1     -46.997 -14.129 -19.194  0.00  0.00    +0.000 OA
ENDBRANCH  25  26
ENDBRANCH  24  25
ENDBRANCH  23  24
ENDBRANCH  20  21
ENDBRANCH   1  20
TORSDOF 7
ENDMDL
MODEL 3
REMARK VINA RESULT:      -6.5     10.488     14.888
REMARK  Name = ZINC000253471412 PubChem-124891440
REMARK  7 active torsions:
REMARK  status: ('A' for Active; 'I' for Inactive)
REMARK    1  A    between atoms: C_5  and  C_6
REMARK    2  A    between atoms: C_6  and  C_7
REMARK    3  A    between atoms: C_6  and  C_17
REMARK    4  A    between atoms: C_7  and  C_8
REMARK    5  A    between atoms: C_9  and  C_10
REMARK    6  A    between atoms: C_9  and  N_32
REMARK    7  A    between atoms: C_10  and  C_11
REMARK                            x       y       z     vdW  Elec       q    Type
REMARK                         _______ _______ _______ _____ _____    ______ ____
ROOT
ATOM      1  C   UNL     1     -45.278  -4.570 -32.255  0.00  0.00    +0.000 C 
ENDROOT
BRANCH   1   6
ATOM      2  C   UNL     1     -41.387  -0.330 -32.304  0.00  0.00    +0.000 C 
ATOM      3  C   UNL     1     -42.418  -1.399 -32.284  0.00  0.00    +0.000 A 
ATOM      4  C   UNL     1     -43.711  -1.105 -31.856  0.00  0.00    +0.000 A 
ATOM      5  C   UNL     1     -44.664  -2.121 -31.844  0.00  0.00    +0.000 A 
ATOM      6  C   UNL     1     -44.306  -3.415 -32.266  0.00  0.00    +0.000 A 
ATOM      7  C   UNL     1     -42.979  -3.629 -32.679  0.00  0.00    +0.000 A 
ATOM      8  O   UNL     1     -45.955  -1.831 -31.417  0.00  0.00    +0.000 OA
ATOM      9  O   UNL     1     -42.605  -4.773 -33.058  0.00  0.00    +0.000 OA
ATOM     10  O   UNL     1     -42.101  -2.629 -32.674  0.00  0.00    +0.000 OA
ENDBRANCH   1   6
BRANCH   1  11
ATOM     11  C   UNL     1     -45.635  -5.009 -30.864  0.00  0.00    +0.000 A 
ATOM     12  C   UNL     1     -46.968  -4.850 -30.423  0.00  0.00    +0.000 A 
ATOM     13  C   UNL     1     -47.347  -5.242 -29.126  0.00  0.00    +0.000 A 
ATOM     14  C   UNL     1     -46.362  -5.786 -28.306  0.00  0.00    +0.000 A 
ATOM     15  C   UNL     1     -45.080  -5.941 -28.725  0.00  0.00    +0.000 A 
ATOM     16  C   UNL     1     -44.669  -5.566 -30.000  0.00  0.00    +0.000 A 
ATOM     17  C   UNL     1     -45.193  -6.712 -26.584  0.00  0.00    +0.000 C 
ATOM     18  O   UNL     1     -44.330  -6.501 -27.711  0.00  0.00    +0.000 OA
ATOM     19  O   UNL     1     -46.480  -6.241 -27.009  0.00  0.00    +0.000 OA
ENDBRANCH   1  11
BRANCH   1  20
ATOM     20  C   UNL     1     -46.495  -4.339 -33.150  0.00  0.00    +0.000 C 
BRANCH  20  21
ATOM     21  C   UNL     1     -46.586  -5.383 -34.210  0.00  0.00    +0.000 C 
ATOM     22  O   UNL     1     -47.364  -5.221 -35.189  0.00  0.00    +0.000 OA
ATOM     23  N   UNL     1     -45.788  -6.561 -34.104  0.00  0.00    +0.000 NA
BRANCH  23  24
ATOM     24  C   UNL     1     -45.828  -7.613 -35.106  0.00  0.00    +0.000 C 
BRANCH  24  25
ATOM     25  C   UNL     1     -46.555  -8.832 -34.559  0.00  0.00    +0.000 C 
BRANCH  25  26
ATOM     26  C   UNL     1     -46.365  -8.968 -33.083  0.00  0.00    +0.000 A 
ATOM     27  C   UNL     1     -45.192  -9.550 -32.591  0.00  0.00    +0.000 A 
ATOM     28  C   UNL     1     -44.992  -9.665 -31.212  0.00  0.00    +0.000 A 
ATOM     29  C   UNL     1     -45.961  -9.194 -30.322  0.00  0.00    +0.000 A 
ATOM     30  C   UNL     1     -47.130  -8.602 -30.811  0.00  0.00    +0.000 A 
ATOM     31  C   UNL     1     -47.331  -8.486 -32.189  0.00  0.00    +0.000 A 
ATOM     32  O   UNL     1     -45.763  -9.309 -28.954  0.00  0.00    +0.000 OA
ENDBRANCH  25  26
ENDBRANCH  24  25
ENDBRANCH  23  24
ENDBRANCH  20  21
ENDBRANCH   1  20
TORSDOF 7
ENDMDL
