MODEL 1
REMARK VINA RESULT:      -5.8      0.000      0.000
REMARK  Name = ZINC000096181878 ZINC96181878 PubChem-97457708
REMARK  5 active torsions:
REMARK  status: ('A' for Active; 'I' for Inactive)
REMARK    1  A    between atoms: C_2  and  C_3
REMARK    2  A    between atoms: C_3  and  C_4
REMARK    3  A    between atoms: C_4  and  N_18
REMARK    4  A    between atoms: C_5  and  C_6
REMARK    5  A    between atoms: C_10  and  C_11
REMARK                            x       y       z     vdW  Elec       q    Type
REMARK                         _______ _______ _______ _____ _____    ______ ____
ROOT
ATOM      1  C   UNL     1     -45.146 -17.674 -23.990  0.00  0.00    +0.000 C 
ATOM      2  C   UNL     1     -46.031 -18.690 -24.714  0.00  0.00    +0.000 C 
ATOM      3  C   UNL     1     -45.207 -19.780 -25.389  0.00  0.00    +0.000 C 
ATOM      4  C   UNL     1     -44.111 -19.195 -26.221  0.00  0.00    +0.000 C 
ATOM      5  C   UNL     1     -44.136 -17.005 -24.934  0.00  0.00    +0.000 C 
ATOM      6  C   UNL     1     -42.229 -17.563 -26.466  0.00  0.00    +0.000 C 
ATOM      7  N   UNL     1     -43.487 -17.955 -25.847  0.00  0.00    +0.000 N 
ATOM      8  O   UNL     1     -43.706 -19.831 -27.231  0.00  0.00    +0.000 OA
ENDROOT
BRANCH   5   9
ATOM      9  C   UNL     1     -44.755 -15.866 -25.690  0.00  0.00    +0.000 A 
ATOM     10  C   UNL     1     -44.545 -15.705 -27.067  0.00  0.00    +0.000 A 
ATOM     11  C   UNL     1     -45.124 -14.630 -27.746  0.00  0.00    +0.000 A 
ATOM     12  C   UNL     1     -45.915 -13.710 -27.051  0.00  0.00    +0.000 A 
ATOM     13  C   UNL     1     -46.125 -13.865 -25.678  0.00  0.00    +0.000 A 
ATOM     14  C   UNL     1     -45.545 -14.940 -24.999  0.00  0.00    +0.000 A 
ATOM     15  F   UNL     1     -46.478 -12.668 -27.709  0.00  0.00    +0.000 F 
ENDBRANCH   5   9
BRANCH   1  16
ATOM     16  C   UNL     1     -44.488 -18.252 -22.775  0.00  0.00    +0.000 C 
ATOM     17  N   UNL     1     -45.260 -18.578 -21.617  0.00  0.00    +0.000 NA
ATOM     18  O   UNL     1     -43.240 -18.430 -22.780  0.00  0.00    +0.000 OA
BRANCH  17  19
ATOM     19  C   UNL     1     -44.655 -19.131 -20.418  0.00  0.00    +0.000 C 
BRANCH  19  20
ATOM     20  C   UNL     1     -45.210 -18.418 -19.200  0.00  0.00    +0.000 C 
BRANCH  20  22
ATOM     21  C   UNL     1     -46.894 -16.609 -18.869  0.00  0.00    +0.000 C 
ATOM     22  C   UNL     1     -46.647 -17.991 -19.444  0.00  0.00    +0.000 C 
ENDBRANCH  20  22
ENDBRANCH  19  20
ENDBRANCH  17  19
ENDBRANCH   1  16
TORSDOF 5
ENDMDL
MODEL 2
REMARK VINA RESULT:      -5.6     10.951     14.329
REMARK  Name = ZINC000096181878 ZINC96181878 PubChem-97457708
REMARK  5 active torsions:
REMARK  status: ('A' for Active; 'I' for Inactive)
REMARK    1  A    between atoms: C_2  and  C_3
REMARK    2  A    between atoms: C_3  and  C_4
REMARK    3  A    between atoms: C_4  and  N_18
REMARK    4  A    between atoms: C_5  and  C_6
REMARK    5  A    between atoms: C_10  and  C_11
REMARK                            x       y       z     vdW  Elec       q    Type
REMARK                         _______ _______ _______ _____ _____    ______ ____
ROOT
ATOM      1  C   UNL     1     -45.037  -5.149 -29.812  0.00  0.00    +0.000 C 
ATOM      2  C   UNL     1     -43.742  -5.923 -29.562  0.00  0.00    +0.000 C 
ATOM      3  C   UNL     1     -43.782  -7.313 -30.186  0.00  0.00    +0.000 C 
ATOM      4  C   UNL     1     -45.032  -8.042 -29.809  0.00  0.00    +0.000 C 
ATOM      5  C   UNL     1     -46.271  -5.889 -29.273  0.00  0.00    +0.000 C 
ATOM      6  C   UNL     1     -47.520  -8.049 -29.530  0.00  0.00    +0.000 C 
ATOM      7  N   UNL     1     -46.258  -7.325 -29.577  0.00  0.00    +0.000 N 
ATOM      8  O   UNL     1     -45.010  -9.300 -29.745  0.00  0.00    +0.000 OA
ENDROOT
BRANCH   5   9
ATOM      9  C   UNL     1     -46.460  -5.650 -27.803  0.00  0.00    +0.000 A 
ATOM     10  C   UNL     1     -46.008  -6.574 -26.850  0.00  0.00    +0.000 A 
ATOM     11  C   UNL     1     -46.206  -6.333 -25.488  0.00  0.00    +0.000 A 
ATOM     12  C   UNL     1     -46.858  -5.168 -25.072  0.00  0.00    +0.000 A 
ATOM     13  C   UNL     1     -47.313  -4.246 -26.019  0.00  0.00    +0.000 A 
ATOM     14  C   UNL     1     -47.116  -4.488 -27.382  0.00  0.00    +0.000 A 
ATOM     15  F   UNL     1     -47.049  -4.933 -23.752  0.00  0.00    +0.000 F 
ENDBRANCH   5   9
BRANCH   1  16
ATOM     16  C   UNL     1     -45.198  -4.754 -31.247  0.00  0.00    +0.000 C 
ATOM     17  N   UNL     1     -44.260  -3.871 -31.867  0.00  0.00    +0.000 NA
ATOM     18  O   UNL     1     -46.183  -5.194 -31.898  0.00  0.00    +0.000 OA
BRANCH  17  19
ATOM     19  C   UNL     1     -44.389  -3.459 -33.253  0.00  0.00    +0.000 C 
BRANCH  19  20
ATOM     20  C   UNL     1     -45.146  -2.146 -33.319  0.00  0.00    +0.000 C 
BRANCH  20  22
ATOM     21  C   UNL     1     -43.108  -0.720 -33.145  0.00  0.00    +0.000 C 
ATOM     22  C   UNL     1     -44.434  -1.081 -32.502  0.00  0.00    +0.000 C 
ENDBRANCH  20  22
ENDBRANCH  19  20
ENDBRANCH  17  19
ENDBRANCH   1  16
TORSDOF 5
ENDMDL
MODEL 3
REMARK VINA RESULT:      -5.4     11.933     15.103
REMARK  Name = ZINC000096181878 ZINC96181878 PubChem-97457708
REMARK  5 active torsions:
REMARK  status: ('A' for Active; 'I' for Inactive)
REMARK    1  A    between atoms: C_2  and  C_3
REMARK    2  A    between atoms: C_3  and  C_4
REMARK    3  A    between atoms: C_4  and  N_18
REMARK    4  A    between atoms: C_5  and  C_6
REMARK    5  A    between atoms: C_10  and  C_11
REMARK                            x       y       z     vdW  Elec       q    Type
REMARK                         _______ _______ _______ _____ _____    ______ ____
ROOT
ATOM      1  C   UNL     1     -45.136  -4.240 -30.793  0.00  0.00    +0.000 C 
ATOM      2  C   UNL     1     -46.472  -3.570 -31.117  0.00  0.00    +0.000 C 
ATOM      3  C   UNL     1     -47.293  -4.389 -32.107  0.00  0.00    +0.000 C 
ATOM      4  C   UNL     1     -46.478  -4.775 -33.299  0.00  0.00    +0.000 C 
ATOM      5  C   UNL     1     -44.286  -4.480 -32.050  0.00  0.00    +0.000 C 
ATOM      6  C   UNL     1     -44.349  -5.684 -34.250  0.00  0.00    +0.000 C 
ATOM      7  N   UNL     1     -45.064  -5.006 -33.178  0.00  0.00    +0.000 N 
ATOM      8  O   UNL     1     -47.058  -4.945 -34.405  0.00  0.00    +0.000 OA
ENDROOT
BRANCH   5   9
ATOM      9  C   UNL     1     -43.525  -3.249 -32.446  0.00  0.00    +0.000 A 
ATOM     10  C   UNL     1     -42.123  -3.240 -32.485  0.00  0.00    +0.000 A 
ATOM     11  C   UNL     1     -41.437  -2.077 -32.847  0.00  0.00    +0.000 A 
ATOM     12  C   UNL     1     -42.149  -0.918 -33.170  0.00  0.00    +0.000 A 
ATOM     13  C   UNL     1     -43.547  -0.923 -33.130  0.00  0.00    +0.000 A 
ATOM     14  C   UNL     1     -44.232  -2.085 -32.767  0.00  0.00    +0.000 A 
ATOM     15  F   UNL     1     -41.486   0.209 -33.523  0.00  0.00    +0.000 F 
ENDBRANCH   5   9
BRANCH   1  16
ATOM     16  C   UNL     1     -45.305  -5.486 -29.979  0.00  0.00    +0.000 C 
ATOM     17  N   UNL     1     -46.611  -5.976 -29.666  0.00  0.00    +0.000 NA
ATOM     18  O   UNL     1     -44.281  -6.085 -29.556  0.00  0.00    +0.000 OA
BRANCH  17  19
ATOM     19  C   UNL     1     -46.814  -7.174 -28.871  0.00  0.00    +0.000 C 
BRANCH  19  20
ATOM     20  C   UNL     1     -46.953  -8.372 -29.791  0.00  0.00    +0.000 C 
BRANCH  20  22
ATOM     21  C   UNL     1     -46.979  -8.340 -32.284  0.00  0.00    +0.000 C 
ATOM     22  C   UNL     1     -47.757  -8.002 -31.026  0.00  0.00    +0.000 C 
ENDBRANCH  20  22
ENDBRANCH  19  20
ENDBRANCH  17  19
ENDBRANCH   1  16
TORSDOF 5
ENDMDL
