MODEL 1
REMARK VINA RESULT:      -5.6      0.000      0.000
REMARK  Name = ZINC000020144670 PubChem-28676995
REMARK  6 active torsions:
REMARK  status: ('A' for Active; 'I' for Inactive)
REMARK    1  A    between atoms: C_2  and  C_3
REMARK    2  A    between atoms: C_2  and  O_22
REMARK    3  A    between atoms: C_4  and  N_23
REMARK    4  A    between atoms: C_5  and  O_21
REMARK    5  A    between atoms: C_8  and  C_10
REMARK    6  A    between atoms: C_12  and  O_22
REMARK                            x       y       z     vdW  Elec       q    Type
REMARK                         _______ _______ _______ _____ _____    ______ ____
ROOT
ATOM      1  C   UNL     1     -45.269 -14.654 -20.197  0.00  0.00    +0.000 C 
ATOM      2  O   UNL     1     -44.707 -13.872 -19.388  0.00  0.00    +0.000 OA
ATOM      3  N   UNL     1     -44.806 -14.670 -21.560  0.00  0.00    +0.000 NA
ENDROOT
BRANCH   3   4
ATOM      4  C   UNL     1     -45.273 -15.395 -22.711  0.00  0.00    +0.000 A 
ATOM      5  C   UNL     1     -46.004 -14.705 -23.693  0.00  0.00    +0.000 A 
ATOM      6  C   UNL     1     -46.479 -15.396 -24.821  0.00  0.00    +0.000 A 
ATOM      7  C   UNL     1     -46.229 -16.761 -24.972  0.00  0.00    +0.000 A 
ATOM      8  C   UNL     1     -45.501 -17.455 -23.999  0.00  0.00    +0.000 A 
ATOM      9  C   UNL     1     -45.031 -16.765 -22.878  0.00  0.00    +0.000 A 
BRANCH   8  10
ATOM     10  C   UNL     1     -45.229 -18.893 -24.147  0.00  0.00    +0.000 C 
ATOM     11  O   UNL     1     -44.420 -19.473 -23.375  0.00  0.00    +0.000 OA
ATOM     12  O   UNL     1     -45.864 -19.625 -25.144  0.00  0.00    +0.000 OA
ENDBRANCH   8  10
BRANCH   5  14
ATOM     13  C   UNL     1     -45.600 -12.339 -24.306  0.00  0.00    +0.000 C 
ATOM     14  O   UNL     1     -46.250 -13.337 -23.531  0.00  0.00    +0.000 OA
ENDBRANCH   5  14
ENDBRANCH   3   4
BRANCH   1  16
ATOM     15  C   UNL     1     -47.526 -14.682 -19.111  0.00  0.00    +0.000 C 
ATOM     16  C   UNL     1     -46.383 -15.508 -19.671  0.00  0.00    +0.000 C 
BRANCH  16  17
ATOM     17  O   UNL     1     -45.909 -16.450 -18.718  0.00  0.00    +0.000 OA
BRANCH  17  18
ATOM     18  C   UNL     1     -44.891 -17.369 -18.995  0.00  0.00    +0.000 A 
ATOM     19  C   UNL     1     -45.209 -18.581 -19.628  0.00  0.00    +0.000 A 
ATOM     20  C   UNL     1     -44.202 -19.509 -19.913  0.00  0.00    +0.000 A 
ATOM     21  C   UNL     1     -42.876 -19.235 -19.568  0.00  0.00    +0.000 A 
ATOM     22  C   UNL     1     -42.553 -18.031 -18.937  0.00  0.00    +0.000 A 
ATOM     23  C   UNL     1     -43.556 -17.101 -18.652  0.00  0.00    +0.000 A 
ATOM     24 CL   UNL     1     -41.621 -20.400 -19.927  0.00  0.00    +0.000 Cl
ATOM     25 CL   UNL     1     -46.865 -18.958 -20.068  0.00  0.00    +0.000 Cl
ENDBRANCH  17  18
ENDBRANCH  16  17
ENDBRANCH   1  16
TORSDOF 6
ENDMDL
MODEL 2
REMARK VINA RESULT:      -5.4      2.624      5.095
REMARK  Name = ZINC000020144670 PubChem-28676995
REMARK  6 active torsions:
REMARK  status: ('A' for Active; 'I' for Inactive)
REMARK    1  A    between atoms: C_2  and  C_3
REMARK    2  A    between atoms: C_2  and  O_22
REMARK    3  A    between atoms: C_4  and  N_23
REMARK    4  A    between atoms: C_5  and  O_21
REMARK    5  A    between atoms: C_8  and  C_10
REMARK    6  A    between atoms: C_12  and  O_22
REMARK                            x       y       z     vdW  Elec       q    Type
REMARK                         _______ _______ _______ _____ _____    ______ ____
ROOT
ATOM      1  C   UNL     1     -44.264 -18.942 -25.861  0.00  0.00    +0.000 C 
ATOM      2  O   UNL     1     -44.470 -19.667 -26.869  0.00  0.00    +0.000 OA
ATOM      3  N   UNL     1     -45.348 -18.744 -24.935  0.00  0.00    +0.000 NA
ENDROOT
BRANCH   3   4
ATOM      4  C   UNL     1     -45.442 -17.942 -23.745  0.00  0.00    +0.000 A 
ATOM      5  C   UNL     1     -45.582 -16.549 -23.878  0.00  0.00    +0.000 A 
ATOM      6  C   UNL     1     -45.666 -15.745 -22.729  0.00  0.00    +0.000 A 
ATOM      7  C   UNL     1     -45.611 -16.318 -21.458  0.00  0.00    +0.000 A 
ATOM      8  C   UNL     1     -45.472 -17.704 -21.317  0.00  0.00    +0.000 A 
ATOM      9  C   UNL     1     -45.389 -18.501 -22.462  0.00  0.00    +0.000 A 
BRANCH   8  10
ATOM     10  C   UNL     1     -45.416 -18.321 -19.983  0.00  0.00    +0.000 C 
ATOM     11  O   UNL     1     -45.522 -17.612 -18.946  0.00  0.00    +0.000 OA
ATOM     12  O   UNL     1     -45.243 -19.694 -19.854  0.00  0.00    +0.000 OA
ENDBRANCH   8  10
BRANCH   5  14
ATOM     13  C   UNL     1     -46.076 -14.656 -25.397  0.00  0.00    +0.000 C 
ATOM     14  O   UNL     1     -45.634 -15.985 -25.158  0.00  0.00    +0.000 OA
ENDBRANCH   5  14
ENDBRANCH   3   4
BRANCH   1  16
ATOM     15  C   UNL     1     -42.232 -18.083 -27.048  0.00  0.00    +0.000 C 
ATOM     16  C   UNL     1     -42.900 -18.341 -25.710  0.00  0.00    +0.000 C 
BRANCH  16  17
ATOM     17  O   UNL     1     -42.075 -19.131 -24.863  0.00  0.00    +0.000 OA
BRANCH  17  18
ATOM     18  C   UNL     1     -41.995 -18.938 -23.480  0.00  0.00    +0.000 A 
ATOM     19  C   UNL     1     -42.101 -20.044 -22.622  0.00  0.00    +0.000 A 
ATOM     20  C   UNL     1     -42.022 -19.866 -21.237  0.00  0.00    +0.000 A 
ATOM     21  C   UNL     1     -41.839 -18.588 -20.701  0.00  0.00    +0.000 A 
ATOM     22  C   UNL     1     -41.734 -17.484 -21.550  0.00  0.00    +0.000 A 
ATOM     23  C   UNL     1     -41.812 -17.657 -22.934  0.00  0.00    +0.000 A 
ATOM     24 CL   UNL     1     -41.741 -18.373 -18.968  0.00  0.00    +0.000 Cl
ATOM     25 CL   UNL     1     -42.338 -21.660 -23.262  0.00  0.00    +0.000 Cl
ENDBRANCH  17  18
ENDBRANCH  16  17
ENDBRANCH   1  16
TORSDOF 6
ENDMDL
MODEL 3
REMARK VINA RESULT:      -5.3      9.165     12.765
REMARK  Name = ZINC000020144670 PubChem-28676995
REMARK  6 active torsions:
REMARK  status: ('A' for Active; 'I' for Inactive)
REMARK    1  A    between atoms: C_2  and  C_3
REMARK    2  A    between atoms: C_2  and  O_22
REMARK    3  A    between atoms: C_4  and  N_23
REMARK    4  A    between atoms: C_5  and  O_21
REMARK    5  A    between atoms: C_8  and  C_10
REMARK    6  A    between atoms: C_12  and  O_22
REMARK                            x       y       z     vdW  Elec       q    Type
REMARK                         _______ _______ _______ _____ _____    ______ ____
ROOT
ATOM      1  C   UNL     1     -47.085  -6.007 -29.972  0.00  0.00    +0.000 C 
ATOM      2  O   UNL     1     -47.756  -5.187 -30.650  0.00  0.00    +0.000 OA
ATOM      3  N   UNL     1     -47.149  -7.400 -30.330  0.00  0.00    +0.000 NA
ENDROOT
BRANCH   3   4
ATOM      4  C   UNL     1     -46.556  -8.562 -29.725  0.00  0.00    +0.000 A 
ATOM      5  C   UNL     1     -45.419  -9.130 -30.327  0.00  0.00    +0.000 A 
ATOM      6  C   UNL     1     -44.829 -10.272 -29.759  0.00  0.00    +0.000 A 
ATOM      7  C   UNL     1     -45.362 -10.844 -28.604  0.00  0.00    +0.000 A 
ATOM      8  C   UNL     1     -46.494 -10.284 -27.999  0.00  0.00    +0.000 A 
ATOM      9  C   UNL     1     -47.079  -9.149 -28.566  0.00  0.00    +0.000 A 
BRANCH   8  10
ATOM     10  C   UNL     1     -47.065 -10.877 -26.780  0.00  0.00    +0.000 C 
ATOM     11  O   UNL     1     -47.362 -12.102 -26.744  0.00  0.00    +0.000 OA
ATOM     12  O   UNL     1     -47.281 -10.091 -25.654  0.00  0.00    +0.000 OA
ENDBRANCH   8  10
BRANCH   5  14
ATOM     13  C   UNL     1     -43.500  -8.500 -31.761  0.00  0.00    +0.000 C 
ATOM     14  O   UNL     1     -44.893  -8.548 -31.485  0.00  0.00    +0.000 OA
ENDBRANCH   5  14
ENDBRANCH   3   4
BRANCH   1  16
ATOM     15  C   UNL     1     -44.834  -5.942 -28.874  0.00  0.00    +0.000 C 
ATOM     16  C   UNL     1     -46.272  -5.461 -28.837  0.00  0.00    +0.000 C 
BRANCH  16  17
ATOM     17  O   UNL     1     -46.880  -5.740 -27.582  0.00  0.00    +0.000 OA
BRANCH  17  18
ATOM     18  C   UNL     1     -47.024  -4.780 -26.575  0.00  0.00    +0.000 A 
ATOM     19  C   UNL     1     -46.941  -5.174 -25.230  0.00  0.00    +0.000 A 
ATOM     20  C   UNL     1     -47.083  -4.225 -24.212  0.00  0.00    +0.000 A 
ATOM     21  C   UNL     1     -47.308  -2.883 -24.528  0.00  0.00    +0.000 A 
ATOM     22  C   UNL     1     -47.392  -2.485 -25.864  0.00  0.00    +0.000 A 
ATOM     23  C   UNL     1     -47.251  -3.429 -26.884  0.00  0.00    +0.000 A 
ATOM     24 CL   UNL     1     -47.484  -1.702 -23.249  0.00  0.00    +0.000 Cl
ATOM     25 CL   UNL     1     -46.666  -6.852 -24.799  0.00  0.00    +0.000 Cl
ENDBRANCH  17  18
ENDBRANCH  16  17
ENDBRANCH   1  16
TORSDOF 6
ENDMDL
