MODEL 1
REMARK VINA RESULT:      -7.2      0.000      0.000
REMARK  Name = ZINC000072242201 ZINC72242201 PubChem-95740415
REMARK  2 active torsions:
REMARK  status: ('A' for Active; 'I' for Inactive)
REMARK    1  A    between atoms: C_7  and  C_8
REMARK    2  A    between atoms: C_11  and  C_12
REMARK                            x       y       z     vdW  Elec       q    Type
REMARK                         _______ _______ _______ _____ _____    ______ ____
ROOT
ATOM      1  C   UNL     1     -46.133  -4.142 -31.761  0.00  0.00    +0.000 C 
ATOM      2  C   UNL     1     -47.126  -4.870 -32.676  0.00  0.00    +0.000 C 
ATOM      3  C   UNL     1     -46.255  -5.490 -33.694  0.00  0.00    +0.000 C 
ATOM      4  C   UNL     1     -44.712  -4.466 -32.260  0.00  0.00    +0.000 C 
ATOM      5  C   UNL     1     -43.802  -5.908 -34.178  0.00  0.00    +0.000 C 
ATOM      6  N   UNL     1     -44.884  -5.232 -33.480  0.00  0.00    +0.000 N 
ATOM      7  O   UNL     1     -46.683  -6.190 -34.647  0.00  0.00    +0.000 OA
ENDROOT
BRANCH   1  14
ATOM      8  C   UNL     1     -47.756  -1.809 -24.951  0.00  0.00    +0.000 C 
ATOM      9  C   UNL     1     -47.402  -2.978 -25.796  0.00  0.00    +0.000 A 
ATOM     10  C   UNL     1     -47.287  -4.245 -25.220  0.00  0.00    +0.000 A 
ATOM     11  C   UNL     1     -46.954  -5.332 -26.029  0.00  0.00    +0.000 A 
ATOM     12  C   UNL     1     -46.739  -5.142 -27.395  0.00  0.00    +0.000 A 
ATOM     13  C   UNL     1     -46.861  -3.856 -27.941  0.00  0.00    +0.000 A 
ATOM     14  C   UNL     1     -46.305  -4.573 -30.343  0.00  0.00    +0.000 C 
ATOM     15  N   UNL     1     -47.188  -2.814 -27.129  0.00  0.00    +0.000 NA
ATOM     16  N   UNL     1     -46.653  -3.607 -29.338  0.00  0.00    +0.000 NA
ATOM     17  O   UNL     1     -46.144  -5.787 -30.050  0.00  0.00    +0.000 OA
ENDBRANCH   1  14
BRANCH   4  18
ATOM     18  C   UNL     1     -43.933  -3.211 -32.515  0.00  0.00    +0.000 A 
ATOM     19  C   UNL     1     -44.543  -2.076 -33.071  0.00  0.00    +0.000 A 
ATOM     20  C   UNL     1     -43.796  -0.917 -33.298  0.00  0.00    +0.000 A 
ATOM     21  C   UNL     1     -42.438  -0.887 -32.967  0.00  0.00    +0.000 A 
ATOM     22  C   UNL     1     -41.827  -2.015 -32.413  0.00  0.00    +0.000 A 
ATOM     23  C   UNL     1     -42.574  -3.174 -32.185  0.00  0.00    +0.000 A 
ATOM     24  F   UNL     1     -41.713   0.237 -33.187  0.00  0.00    +0.000 F 
ENDBRANCH   4  18
TORSDOF 2
ENDMDL
MODEL 2
REMARK VINA RESULT:      -7.1      1.661      2.206
REMARK  Name = ZINC000072242201 ZINC72242201 PubChem-95740415
REMARK  2 active torsions:
REMARK  status: ('A' for Active; 'I' for Inactive)
REMARK    1  A    between atoms: C_7  and  C_8
REMARK    2  A    between atoms: C_11  and  C_12
REMARK                            x       y       z     vdW  Elec       q    Type
REMARK                         _______ _______ _______ _____ _____    ______ ____
ROOT
ATOM      1  C   UNL     1     -46.920  -5.753 -30.663  0.00  0.00    +0.000 C 
ATOM      2  C   UNL     1     -47.619  -7.020 -31.170  0.00  0.00    +0.000 C 
ATOM      3  C   UNL     1     -46.601  -7.641 -32.041  0.00  0.00    +0.000 C 
ATOM      4  C   UNL     1     -45.479  -5.762 -31.208  0.00  0.00    +0.000 C 
ATOM      5  C   UNL     1     -44.158  -7.404 -32.671  0.00  0.00    +0.000 C 
ATOM      6  N   UNL     1     -45.396  -6.909 -32.092  0.00  0.00    +0.000 N 
ATOM      7  O   UNL     1     -46.779  -8.720 -32.663  0.00  0.00    +0.000 OA
ENDROOT
BRANCH   1  14
ATOM      8  C   UNL     1     -47.592  -1.316 -24.804  0.00  0.00    +0.000 C 
ATOM      9  C   UNL     1     -47.379  -2.711 -25.270  0.00  0.00    +0.000 A 
ATOM     10  C   UNL     1     -47.226  -3.740 -24.339  0.00  0.00    +0.000 A 
ATOM     11  C   UNL     1     -47.028  -5.044 -24.794  0.00  0.00    +0.000 A 
ATOM     12  C   UNL     1     -46.986  -5.302 -26.165  0.00  0.00    +0.000 A 
ATOM     13  C   UNL     1     -47.143  -4.246 -27.073  0.00  0.00    +0.000 A 
ATOM     14  C   UNL     1     -46.919  -5.709 -29.170  0.00  0.00    +0.000 C 
ATOM     15  N   UNL     1     -47.335  -2.984 -26.602  0.00  0.00    +0.000 NA
ATOM     16  N   UNL     1     -47.109  -4.458 -28.491  0.00  0.00    +0.000 NA
ATOM     17  O   UNL     1     -46.755  -6.780 -28.529  0.00  0.00    +0.000 OA
ENDBRANCH   1  14
BRANCH   4  18
ATOM     18  C   UNL     1     -45.173  -4.491 -31.939  0.00  0.00    +0.000 A 
ATOM     19  C   UNL     1     -43.958  -3.816 -31.748  0.00  0.00    +0.000 A 
ATOM     20  C   UNL     1     -43.696  -2.632 -32.444  0.00  0.00    +0.000 A 
ATOM     21  C   UNL     1     -44.645  -2.120 -33.334  0.00  0.00    +0.000 A 
ATOM     22  C   UNL     1     -45.856  -2.790 -33.527  0.00  0.00    +0.000 A 
ATOM     23  C   UNL     1     -46.119  -3.974 -32.832  0.00  0.00    +0.000 A 
ATOM     24  F   UNL     1     -44.391  -0.972 -34.008  0.00  0.00    +0.000 F 
ENDBRANCH   4  18
TORSDOF 2
ENDMDL
MODEL 3
REMARK VINA RESULT:      -6.9      1.583      2.514
REMARK  Name = ZINC000072242201 ZINC72242201 PubChem-95740415
REMARK  2 active torsions:
REMARK  status: ('A' for Active; 'I' for Inactive)
REMARK    1  A    between atoms: C_7  and  C_8
REMARK    2  A    between atoms: C_11  and  C_12
REMARK                            x       y       z     vdW  Elec       q    Type
REMARK                         _______ _______ _______ _____ _____    ______ ____
ROOT
ATOM      1  C   UNL     1     -46.175  -3.635 -31.863  0.00  0.00    +0.000 C 
ATOM      2  C   UNL     1     -47.248  -4.198 -32.803  0.00  0.00    +0.000 C 
ATOM      3  C   UNL     1     -46.458  -4.904 -33.832  0.00  0.00    +0.000 C 
ATOM      4  C   UNL     1     -44.806  -4.135 -32.362  0.00  0.00    +0.000 C 
ATOM      5  C   UNL     1     -44.080  -5.637 -34.311  0.00  0.00    +0.000 C 
ATOM      6  N   UNL     1     -45.067  -4.839 -33.602  0.00  0.00    +0.000 N 
ATOM      7  O   UNL     1     -46.968  -5.516 -34.806  0.00  0.00    +0.000 OA
ENDROOT
BRANCH   1  14
ATOM      8  C   UNL     1     -43.710  -7.993 -26.443  0.00  0.00    +0.000 C 
ATOM      9  C   UNL     1     -44.737  -6.999 -26.848  0.00  0.00    +0.000 A 
ATOM     10  C   UNL     1     -45.726  -6.612 -25.942  0.00  0.00    +0.000 A 
ATOM     11  C   UNL     1     -46.683  -5.678 -26.339  0.00  0.00    +0.000 A 
ATOM     12  C   UNL     1     -46.640  -5.144 -27.628  0.00  0.00    +0.000 A 
ATOM     13  C   UNL     1     -45.634  -5.555 -28.513  0.00  0.00    +0.000 A 
ATOM     14  C   UNL     1     -46.418  -4.074 -30.458  0.00  0.00    +0.000 C 
ATOM     15  N   UNL     1     -44.713  -6.468 -28.099  0.00  0.00    +0.000 NA
ATOM     16  N   UNL     1     -45.544  -5.037 -29.848  0.00  0.00    +0.000 NA
ATOM     17  O   UNL     1     -47.391  -3.585 -29.825  0.00  0.00    +0.000 OA
ENDBRANCH   1  14
BRANCH   4  18
ATOM     18  C   UNL     1     -43.863  -2.991 -32.578  0.00  0.00    +0.000 A 
ATOM     19  C   UNL     1     -42.496  -3.108 -32.282  0.00  0.00    +0.000 A 
ATOM     20  C   UNL     1     -41.636  -2.027 -32.494  0.00  0.00    +0.000 A 
ATOM     21  C   UNL     1     -42.137  -0.826 -33.003  0.00  0.00    +0.000 A 
ATOM     22  C   UNL     1     -43.498  -0.705 -33.299  0.00  0.00    +0.000 A 
ATOM     23  C   UNL     1     -44.358  -1.786 -33.088  0.00  0.00    +0.000 A 
ATOM     24  F   UNL     1     -41.303   0.223 -33.208  0.00  0.00    +0.000 F 
ENDBRANCH   4  18
TORSDOF 2
ENDMDL
