MODEL 1
REMARK VINA RESULT:      -6.3      0.000      0.000
REMARK  Name = ZINC000053230109 ZINC53230109 PubChem-94477473
REMARK  7 active torsions:
REMARK  status: ('A' for Active; 'I' for Inactive)
REMARK    1  A    between atoms: C_3  and  C_7
REMARK    2  A    between atoms: C_7  and  N_20
REMARK    3  A    between atoms: C_8  and  C_9
REMARK    4  A    between atoms: C_8  and  N_20
REMARK    5  A    between atoms: C_13  and  C_14
REMARK    6  A    between atoms: C_13  and  N_20
REMARK    7  A    between atoms: C_16  and  N_22
REMARK                            x       y       z     vdW  Elec       q    Type
REMARK                         _______ _______ _______ _____ _____    ______ ____
ROOT
ATOM      1  N   UNL     1     -46.729  -4.767 -28.278  0.00  0.00    +0.000 NA
ENDROOT
BRANCH   1   2
ATOM      2  C   UNL     1     -47.348  -5.176 -27.021  0.00  0.00    +0.000 C 
BRANCH   2   5
ATOM      3  C   UNL     1     -47.331  -1.677 -25.569  0.00  0.00    +0.000 A 
ATOM      4  C   UNL     1     -47.340  -2.730 -26.489  0.00  0.00    +0.000 A 
ATOM      5  C   UNL     1     -47.306  -4.054 -26.040  0.00  0.00    +0.000 A 
ATOM      6  C   UNL     1     -47.274  -4.324 -24.667  0.00  0.00    +0.000 A 
ATOM      7  C   UNL     1     -47.263  -3.271 -23.747  0.00  0.00    +0.000 A 
ATOM      8  C   UNL     1     -47.292  -1.948 -24.198  0.00  0.00    +0.000 A 
ATOM      9  F   UNL     1     -47.229  -3.533 -22.418  0.00  0.00    +0.000 F 
ENDBRANCH   2   5
ENDBRANCH   1   2
BRANCH   1  10
ATOM     10  C   UNL     1     -45.776  -5.792 -28.689  0.00  0.00    +0.000 C 
BRANCH  10  11
ATOM     11  C   UNL     1     -46.104  -7.116 -28.019  0.00  0.00    +0.000 C 
ATOM     12  C   UNL     1     -46.631  -8.106 -29.036  0.00  0.00    +0.000 C 
ATOM     13  C   UNL     1     -45.972  -9.398 -28.659  0.00  0.00    +0.000 C 
ATOM     14  C   UNL     1     -45.142  -9.041 -27.448  0.00  0.00    +0.000 C 
ATOM     15  O   UNL     1     -44.946  -7.653 -27.441  0.00  0.00    +0.000 OA
ENDBRANCH  10  11
ENDBRANCH   1  10
BRANCH   1  16
ATOM     16  C   UNL     1     -47.755  -4.578 -29.314  0.00  0.00    +0.000 C 
BRANCH  16  17
ATOM     17  C   UNL     1     -47.225  -4.083 -30.631  0.00  0.00    +0.000 C 
ATOM     18  C   UNL     1     -45.660  -2.490 -31.849  0.00  0.00    +0.000 C 
ATOM     19  N   UNL     1     -46.248  -3.037 -30.664  0.00  0.00    +0.000 NA
ATOM     20  N   UNL     1     -44.697  -1.443 -31.727  0.00  0.00    +0.000 NA
ATOM     21  O   UNL     1     -47.676  -4.578 -31.698  0.00  0.00    +0.000 OA
ATOM     22  O   UNL     1     -45.983  -2.923 -32.988  0.00  0.00    +0.000 OA
BRANCH  20  23
ATOM     23  C   UNL     1     -44.060  -0.840 -32.885  0.00  0.00    +0.000 C 
ATOM     24  C   UNL     1     -42.867  -1.681 -33.290  0.00  0.00    +0.000 C 
ATOM     25  C   UNL     1     -42.660  -0.398 -32.512  0.00  0.00    +0.000 C 
ENDBRANCH  20  23
ENDBRANCH  16  17
ENDBRANCH   1  16
TORSDOF 7
ENDMDL
MODEL 2
REMARK VINA RESULT:      -6.2      1.882      2.312
REMARK  Name = ZINC000053230109 ZINC53230109 PubChem-94477473
REMARK  7 active torsions:
REMARK  status: ('A' for Active; 'I' for Inactive)
REMARK    1  A    between atoms: C_3  and  C_7
REMARK    2  A    between atoms: C_7  and  N_20
REMARK    3  A    between atoms: C_8  and  C_9
REMARK    4  A    between atoms: C_8  and  N_20
REMARK    5  A    between atoms: C_13  and  C_14
REMARK    6  A    between atoms: C_13  and  N_20
REMARK    7  A    between atoms: C_16  and  N_22
REMARK                            x       y       z     vdW  Elec       q    Type
REMARK                         _______ _______ _______ _____ _____    ______ ____
ROOT
ATOM      1  N   UNL     1     -46.101  -5.656 -27.410  0.00  0.00    +0.000 NA
ENDROOT
BRANCH   1   2
ATOM      2  C   UNL     1     -47.139  -5.800 -26.393  0.00  0.00    +0.000 C 
BRANCH   2   5
ATOM      3  C   UNL     1     -47.129  -3.563 -23.336  0.00  0.00    +0.000 A 
ATOM      4  C   UNL     1     -47.113  -4.706 -24.143  0.00  0.00    +0.000 A 
ATOM      5  C   UNL     1     -47.188  -4.583 -25.534  0.00  0.00    +0.000 A 
ATOM      6  C   UNL     1     -47.267  -3.314 -26.118  0.00  0.00    +0.000 A 
ATOM      7  C   UNL     1     -47.285  -2.172 -25.312  0.00  0.00    +0.000 A 
ATOM      8  C   UNL     1     -47.215  -2.297 -23.922  0.00  0.00    +0.000 A 
ATOM      9  F   UNL     1     -47.365  -0.944 -25.879  0.00  0.00    +0.000 F 
ENDBRANCH   2   5
ENDBRANCH   1   2
BRANCH   1  10
ATOM     10  C   UNL     1     -45.066  -6.657 -27.173  0.00  0.00    +0.000 C 
BRANCH  10  11
ATOM     11  C   UNL     1     -43.970  -6.540 -28.220  0.00  0.00    +0.000 C 
ATOM     12  C   UNL     1     -42.620  -6.383 -27.555  0.00  0.00    +0.000 C 
ATOM     13  C   UNL     1     -41.712  -7.253 -28.370  0.00  0.00    +0.000 C 
ATOM     14  C   UNL     1     -42.615  -7.816 -29.441  0.00  0.00    +0.000 C 
ATOM     15  O   UNL     1     -43.942  -7.700 -29.006  0.00  0.00    +0.000 OA
ENDBRANCH  10  11
ENDBRANCH   1  10
BRANCH   1  16
ATOM     16  C   UNL     1     -46.675  -5.822 -28.753  0.00  0.00    +0.000 C 
BRANCH  16  17
ATOM     17  C   UNL     1     -46.704  -4.564 -29.577  0.00  0.00    +0.000 C 
ATOM     18  C   UNL     1     -45.444  -2.985 -31.122  0.00  0.00    +0.000 C 
ATOM     19  N   UNL     1     -45.537  -4.151 -30.298  0.00  0.00    +0.000 NA
ATOM     20  N   UNL     1     -44.209  -2.697 -31.780  0.00  0.00    +0.000 NA
ATOM     21  O   UNL     1     -47.754  -3.869 -29.596  0.00  0.00    +0.000 OA
ATOM     22  O   UNL     1     -46.434  -2.220 -31.273  0.00  0.00    +0.000 OA
BRANCH  20  23
ATOM     23  C   UNL     1     -44.041  -1.532 -32.632  0.00  0.00    +0.000 C 
ATOM     24  C   UNL     1     -42.928  -1.799 -33.624  0.00  0.00    +0.000 C 
ATOM     25  C   UNL     1     -42.665  -0.941 -32.404  0.00  0.00    +0.000 C 
ENDBRANCH  20  23
ENDBRANCH  16  17
ENDBRANCH   1  16
TORSDOF 7
ENDMDL
MODEL 3
REMARK VINA RESULT:      -6.1      3.389      7.525
REMARK  Name = ZINC000053230109 ZINC53230109 PubChem-94477473
REMARK  7 active torsions:
REMARK  status: ('A' for Active; 'I' for Inactive)
REMARK    1  A    between atoms: C_3  and  C_7
REMARK    2  A    between atoms: C_7  and  N_20
REMARK    3  A    between atoms: C_8  and  C_9
REMARK    4  A    between atoms: C_8  and  N_20
REMARK    5  A    between atoms: C_13  and  C_14
REMARK    6  A    between atoms: C_13  and  N_20
REMARK    7  A    between atoms: C_16  and  N_22
REMARK                            x       y       z     vdW  Elec       q    Type
REMARK                         _______ _______ _______ _____ _____    ______ ____
ROOT
ATOM      1  N   UNL     1     -46.318  -5.114 -31.197  0.00  0.00    +0.000 NA
ENDROOT
BRANCH   1   2
ATOM      2  C   UNL     1     -46.795  -3.839 -31.728  0.00  0.00    +0.000 C 
BRANCH   2   5
ATOM      3  C   UNL     1     -43.726  -2.775 -33.675  0.00  0.00    +0.000 A 
ATOM      4  C   UNL     1     -44.786  -3.548 -33.191  0.00  0.00    +0.000 A 
ATOM      5  C   UNL     1     -45.647  -3.026 -32.220  0.00  0.00    +0.000 A 
ATOM      6  C   UNL     1     -45.452  -1.726 -31.741  0.00  0.00    +0.000 A 
ATOM      7  C   UNL     1     -44.391  -0.954 -32.223  0.00  0.00    +0.000 A 
ATOM      8  C   UNL     1     -43.529  -1.478 -33.191  0.00  0.00    +0.000 A 
ATOM      9  F   UNL     1     -44.201   0.304 -31.758  0.00  0.00    +0.000 F 
ENDBRANCH   2   5
ENDBRANCH   1   2
BRANCH   1  10
ATOM     10  C   UNL     1     -45.751  -4.890 -29.872  0.00  0.00    +0.000 C 
BRANCH  10  11
ATOM     11  C   UNL     1     -46.842  -4.951 -28.814  0.00  0.00    +0.000 C 
ATOM     12  C   UNL     1     -46.364  -5.733 -27.609  0.00  0.00    +0.000 C 
ATOM     13  C   UNL     1     -46.879  -4.948 -26.442  0.00  0.00    +0.000 C 
ATOM     14  C   UNL     1     -47.622  -3.797 -27.079  0.00  0.00    +0.000 C 
ATOM     15  O   UNL     1     -47.169  -3.654 -28.397  0.00  0.00    +0.000 OA
ENDBRANCH  10  11
ENDBRANCH   1  10
BRANCH   1  16
ATOM     16  C   UNL     1     -47.423  -6.080 -31.124  0.00  0.00    +0.000 C 
BRANCH  16  17
ATOM     17  C   UNL     1     -47.028  -7.500 -31.427  0.00  0.00    +0.000 C 
ATOM     18  C   UNL     1     -46.780  -9.883 -30.574  0.00  0.00    +0.000 C 
ATOM     19  N   UNL     1     -47.114  -8.501 -30.406  0.00  0.00    +0.000 NA
ATOM     20  N   UNL     1     -46.912 -10.769 -29.461  0.00  0.00    +0.000 NA
ATOM     21  O   UNL     1     -46.595  -7.783 -32.575  0.00  0.00    +0.000 OA
ATOM     22  O   UNL     1     -46.376 -10.319 -31.685  0.00  0.00    +0.000 OA
BRANCH  20  23
ATOM     23  C   UNL     1     -46.591 -12.183 -29.557  0.00  0.00    +0.000 C 
ATOM     24  C   UNL     1     -47.109 -12.895 -28.325  0.00  0.00    +0.000 C 
ATOM     25  C   UNL     1     -45.638 -12.556 -28.441  0.00  0.00    +0.000 C 
ENDBRANCH  20  23
ENDBRANCH  16  17
ENDBRANCH   1  16
TORSDOF 7
ENDMDL
