MODEL 1
REMARK VINA RESULT:      -6.6      0.000      0.000
REMARK  Name = ZINC000096181682 ZINC96181682 PubChem-97457512
REMARK  3 active torsions:
REMARK  status: ('A' for Active; 'I' for Inactive)
REMARK    1  A    between atoms: C_5  and  N_20
REMARK    2  A    between atoms: C_7  and  C_8
REMARK    3  A    between atoms: C_9  and  C_13
REMARK                            x       y       z     vdW  Elec       q    Type
REMARK                         _______ _______ _______ _____ _____    ______ ____
ROOT
ATOM      1  C   UNL     1     -45.856  -3.422 -31.208  0.00  0.00    +0.000 C 
ATOM      2  C   UNL     1     -44.591  -3.947 -31.915  0.00  0.00    +0.000 C 
ATOM      3  C   UNL     1     -46.255  -4.868 -33.564  0.00  0.00    +0.000 C 
ATOM      4  C   UNL     1     -47.354  -4.221 -32.785  0.00  0.00    +0.000 C 
ATOM      5  C   UNL     1     -43.862  -5.600 -33.673  0.00  0.00    +0.000 C 
ATOM      6  N   UNL     1     -44.916  -4.803 -33.061  0.00  0.00    +0.000 N 
ATOM      7  O   UNL     1     -46.524  -5.511 -34.612  0.00  0.00    +0.000 OA
ATOM      8  O   UNL     1     -46.891  -3.070 -32.110  0.00  0.00    +0.000 OA
ENDROOT
BRANCH   2   9
ATOM      9  C   UNL     1     -43.713  -2.807 -32.336  0.00  0.00    +0.000 A 
ATOM     10  C   UNL     1     -42.324  -2.936 -32.218  0.00  0.00    +0.000 A 
ATOM     11  C   UNL     1     -41.486  -1.889 -32.610  0.00  0.00    +0.000 A 
ATOM     12  C   UNL     1     -42.032  -0.709 -33.125  0.00  0.00    +0.000 A 
ATOM     13  C   UNL     1     -43.418  -0.577 -33.247  0.00  0.00    +0.000 A 
ATOM     14  C   UNL     1     -44.258  -1.623 -32.854  0.00  0.00    +0.000 A 
ATOM     15  F   UNL     1     -41.218   0.305 -33.504  0.00  0.00    +0.000 F 
ENDBRANCH   2   9
BRANCH   1  16
ATOM     16  C   UNL     1     -46.319  -4.291 -30.074  0.00  0.00    +0.000 C 
ATOM     17  N   UNL     1     -45.628  -5.513 -29.776  0.00  0.00    +0.000 NA
ATOM     18  O   UNL     1     -47.334  -3.945 -29.415  0.00  0.00    +0.000 OA
BRANCH  17  23
ATOM     19  C   UNL     1     -45.467  -6.794 -25.013  0.00  0.00    +0.000 C 
ATOM     20  C   UNL     1     -45.894  -7.066 -26.411  0.00  0.00    +0.000 A 
ATOM     21  C   UNL     1     -46.625  -8.216 -26.707  0.00  0.00    +0.000 A 
ATOM     22  C   UNL     1     -47.016  -8.452 -28.026  0.00  0.00    +0.000 A 
ATOM     23  C   UNL     1     -45.971  -6.437 -28.737  0.00  0.00    +0.000 A 
ATOM     24  C   UNL     1     -45.564  -6.169 -27.428  0.00  0.00    +0.000 A 
ATOM     25  N   UNL     1     -46.683  -7.568 -29.005  0.00  0.00    +0.000 NA
ENDBRANCH  17  23
ENDBRANCH   1  16
TORSDOF 3
ENDMDL
MODEL 2
REMARK VINA RESULT:      -6.3     11.283     14.125
REMARK  Name = ZINC000096181682 ZINC96181682 PubChem-97457512
REMARK  3 active torsions:
REMARK  status: ('A' for Active; 'I' for Inactive)
REMARK    1  A    between atoms: C_5  and  N_20
REMARK    2  A    between atoms: C_7  and  C_8
REMARK    3  A    between atoms: C_9  and  C_13
REMARK                            x       y       z     vdW  Elec       q    Type
REMARK                         _______ _______ _______ _____ _____    ______ ____
ROOT
ATOM      1  C   UNL     1     -45.211 -17.411 -25.655  0.00  0.00    +0.000 C 
ATOM      2  C   UNL     1     -44.336 -16.142 -25.668  0.00  0.00    +0.000 C 
ATOM      3  C   UNL     1     -42.481 -17.785 -26.111  0.00  0.00    +0.000 C 
ATOM      4  C   UNL     1     -43.489 -18.887 -26.136  0.00  0.00    +0.000 C 
ATOM      5  C   UNL     1     -41.928 -15.411 -25.533  0.00  0.00    +0.000 C 
ATOM      6  N   UNL     1     -42.908 -16.458 -25.779  0.00  0.00    +0.000 N 
ATOM      7  O   UNL     1     -41.266 -18.041 -26.318  0.00  0.00    +0.000 OA
ATOM      8  O   UNL     1     -44.753 -18.411 -26.550  0.00  0.00    +0.000 OA
ENDROOT
BRANCH   2   9
ATOM      9  C   UNL     1     -44.763 -15.221 -26.771  0.00  0.00    +0.000 A 
ATOM     10  C   UNL     1     -45.835 -14.348 -26.554  0.00  0.00    +0.000 A 
ATOM     11  C   UNL     1     -46.246 -13.475 -27.565  0.00  0.00    +0.000 A 
ATOM     12  C   UNL     1     -45.586 -13.470 -28.797  0.00  0.00    +0.000 A 
ATOM     13  C   UNL     1     -44.512 -14.338 -29.018  0.00  0.00    +0.000 A 
ATOM     14  C   UNL     1     -44.101 -15.212 -28.008  0.00  0.00    +0.000 A 
ATOM     15  F   UNL     1     -45.986 -12.624 -29.777  0.00  0.00    +0.000 F 
ENDBRANCH   2   9
BRANCH   1  16
ATOM     16  C   UNL     1     -45.501 -17.929 -24.276  0.00  0.00    +0.000 C 
ATOM     17  N   UNL     1     -44.900 -17.307 -23.131  0.00  0.00    +0.000 NA
ATOM     18  O   UNL     1     -46.253 -18.931 -24.146  0.00  0.00    +0.000 OA
BRANCH  17  23
ATOM     19  C   UNL     1     -46.910 -16.492 -18.699  0.00  0.00    +0.000 C 
ATOM     20  C   UNL     1     -46.061 -17.312 -19.602  0.00  0.00    +0.000 A 
ATOM     21  C   UNL     1     -45.443 -18.467 -19.122  0.00  0.00    +0.000 A 
ATOM     22  C   UNL     1     -44.650 -19.224 -19.986  0.00  0.00    +0.000 A 
ATOM     23  C   UNL     1     -45.080 -17.708 -21.769  0.00  0.00    +0.000 A 
ATOM     24  C   UNL     1     -45.881 -16.927 -20.931  0.00  0.00    +0.000 A 
ATOM     25  N   UNL     1     -44.485 -18.832 -21.279  0.00  0.00    +0.000 NA
ENDBRANCH  17  23
ENDBRANCH   1  16
TORSDOF 3
ENDMDL
MODEL 3
REMARK VINA RESULT:      -6.2      9.104     13.343
REMARK  Name = ZINC000096181682 ZINC96181682 PubChem-97457512
REMARK  3 active torsions:
REMARK  status: ('A' for Active; 'I' for Inactive)
REMARK    1  A    between atoms: C_5  and  N_20
REMARK    2  A    between atoms: C_7  and  C_8
REMARK    3  A    between atoms: C_9  and  C_13
REMARK                            x       y       z     vdW  Elec       q    Type
REMARK                         _______ _______ _______ _____ _____    ______ ____
ROOT
ATOM      1  C   UNL     1     -45.835 -14.779 -25.707  0.00  0.00    +0.000 C 
ATOM      2  C   UNL     1     -44.517 -15.537 -25.456  0.00  0.00    +0.000 C 
ATOM      3  C   UNL     1     -44.530 -14.247 -23.296  0.00  0.00    +0.000 C 
ATOM      4  C   UNL     1     -45.851 -13.663 -23.675  0.00  0.00    +0.000 C 
ATOM      5  C   UNL     1     -42.470 -15.494 -23.987  0.00  0.00    +0.000 C 
ATOM      6  N   UNL     1     -43.846 -15.087 -24.232  0.00  0.00    +0.000 N 
ATOM      7  O   UNL     1     -44.005 -13.947 -22.191  0.00  0.00    +0.000 OA
ATOM      8  O   UNL     1     -46.571 -14.537 -24.519  0.00  0.00    +0.000 OA
ENDROOT
BRANCH   2   9
ATOM      9  C   UNL     1     -44.761 -17.016 -25.417  0.00  0.00    +0.000 A 
ATOM     10  C   UNL     1     -44.079 -17.844 -26.315  0.00  0.00    +0.000 A 
ATOM     11  C   UNL     1     -44.286 -19.226 -26.291  0.00  0.00    +0.000 A 
ATOM     12  C   UNL     1     -45.173 -19.786 -25.367  0.00  0.00    +0.000 A 
ATOM     13  C   UNL     1     -45.854 -18.963 -24.465  0.00  0.00    +0.000 A 
ATOM     14  C   UNL     1     -45.649 -17.581 -24.489  0.00  0.00    +0.000 A 
ATOM     15  F   UNL     1     -45.373 -21.125 -25.345  0.00  0.00    +0.000 F 
ENDBRANCH   2   9
BRANCH   1  16
ATOM     16  C   UNL     1     -45.676 -13.560 -26.571  0.00  0.00    +0.000 C 
ATOM     17  N   UNL     1     -46.832 -12.832 -27.008  0.00  0.00    +0.000 NA
ATOM     18  O   UNL     1     -44.519 -13.211 -26.926  0.00  0.00    +0.000 OA
BRANCH  17  23
ATOM     19  C   UNL     1     -46.590  -7.921 -27.434  0.00  0.00    +0.000 C 
ATOM     20  C   UNL     1     -46.705  -9.268 -28.052  0.00  0.00    +0.000 A 
ATOM     21  C   UNL     1     -46.804  -9.395 -29.438  0.00  0.00    +0.000 A 
ATOM     22  C   UNL     1     -46.911 -10.670 -29.998  0.00  0.00    +0.000 A 
ATOM     23  C   UNL     1     -46.823 -11.668 -27.840  0.00  0.00    +0.000 A 
ATOM     24  C   UNL     1     -46.714 -10.408 -27.246  0.00  0.00    +0.000 A 
ATOM     25  N   UNL     1     -46.919 -11.768 -29.196  0.00  0.00    +0.000 NA
ENDBRANCH  17  23
ENDBRANCH   1  16
TORSDOF 3
ENDMDL
