MODEL 1
REMARK VINA RESULT:      -5.9      0.000      0.000
REMARK  Name = ZINC000253420118 PubChem-124883398
REMARK  7 active torsions:
REMARK  status: ('A' for Active; 'I' for Inactive)
REMARK    1  A    between atoms: C_2  and  C_16
REMARK    2  A    between atoms: C_2  and  N_22
REMARK    3  A    between atoms: C_3  and  C_4
REMARK    4  A    between atoms: C_4  and  C_5
REMARK    5  A    between atoms: C_5  and  C_6
REMARK    6  A    between atoms: C_5  and  N_23
REMARK    7  A    between atoms: C_16  and  N_24
REMARK                            x       y       z     vdW  Elec       q    Type
REMARK                         _______ _______ _______ _____ _____    ______ ____
ROOT
ATOM      1  C   UNL     1     -45.298  -4.118 -31.879  0.00  0.00    +0.000 C 
ENDROOT
BRANCH   1   2
ATOM      2  C   UNL     1     -44.237  -3.071 -32.119  0.00  0.00    +0.000 A 
ATOM      3  C   UNL     1     -44.524  -1.699 -32.039  0.00  0.00    +0.000 A 
ATOM      4  C   UNL     1     -43.523  -0.756 -32.278  0.00  0.00    +0.000 A 
ATOM      5  C   UNL     1     -42.228  -1.171 -32.606  0.00  0.00    +0.000 A 
ATOM      6  C   UNL     1     -41.937  -2.543 -32.699  0.00  0.00    +0.000 A 
ATOM      7  C   UNL     1     -42.944  -3.484 -32.459  0.00  0.00    +0.000 A 
ATOM      8 CL   UNL     1     -41.000   0.050 -32.895  0.00  0.00    +0.000 Cl
ATOM      9 CL   UNL     1     -40.328  -3.116 -33.109  0.00  0.00    +0.000 Cl
ENDBRANCH   1   2
BRANCH   1  14
ATOM     10  C   UNL     1     -45.160  -5.583 -29.930  0.00  0.00    +0.000 C 
ATOM     11  C   UNL     1     -45.676  -5.782 -28.503  0.00  0.00    +0.000 C 
ATOM     12  C   UNL     1     -47.519  -4.525 -28.875  0.00  0.00    +0.000 C 
ATOM     13  C   UNL     1     -47.126  -4.243 -30.327  0.00  0.00    +0.000 C 
ATOM     14  N   UNL     1     -45.668  -4.309 -30.464  0.00  0.00    +0.000 NA
ATOM     15  O   UNL     1     -47.083  -5.813 -28.509  0.00  0.00    +0.000 OA
ENDBRANCH   1  14
BRANCH   1  16
ATOM     16  C   UNL     1     -46.522  -3.903 -32.769  0.00  0.00    +0.000 C 
BRANCH  16  17
ATOM     17  C   UNL     1     -46.641  -4.999 -33.770  0.00  0.00    +0.000 C 
ATOM     18  N   UNL     1     -45.916  -6.214 -33.574  0.00  0.00    +0.000 NA
ATOM     19  O   UNL     1     -47.366  -4.839 -34.788  0.00  0.00    +0.000 OA
BRANCH  18  21
ATOM     20  C   UNL     1     -44.483  -7.619 -34.946  0.00  0.00    +0.000 C 
ATOM     21  C   UNL     1     -45.916  -7.301 -34.545  0.00  0.00    +0.000 C 
BRANCH  21  22
ATOM     22  C   UNL     1     -46.586  -8.541 -33.942  0.00  0.00    +0.000 C 
ATOM     23  C   UNL     1     -46.220  -9.809 -34.722  0.00  0.00    +0.000 C 
BRANCH  22  28
ATOM     24  C   UNL     1     -47.551  -8.504 -31.753  0.00  0.00    +0.000 C 
ATOM     25  C   UNL     1     -47.361  -8.871 -30.272  0.00  0.00    +0.000 C 
ATOM     26  C   UNL     1     -45.535 -10.135 -30.661  0.00  0.00    +0.000 C 
ATOM     27  C   UNL     1     -45.642  -9.936 -32.181  0.00  0.00    +0.000 C 
ATOM     28  N   UNL     1     -46.297  -8.656 -32.503  0.00  0.00    +0.000 NA
ATOM     29  O   UNL     1     -45.994  -9.001 -29.965  0.00  0.00    +0.000 OA
ENDBRANCH  22  28
ENDBRANCH  21  22
ENDBRANCH  18  21
ENDBRANCH  16  17
ENDBRANCH   1  16
TORSDOF 7
ENDMDL
MODEL 2
REMARK VINA RESULT:      -5.8      1.631      2.451
REMARK  Name = ZINC000253420118 PubChem-124883398
REMARK  7 active torsions:
REMARK  status: ('A' for Active; 'I' for Inactive)
REMARK    1  A    between atoms: C_2  and  C_16
REMARK    2  A    between atoms: C_2  and  N_22
REMARK    3  A    between atoms: C_3  and  C_4
REMARK    4  A    between atoms: C_4  and  C_5
REMARK    5  A    between atoms: C_5  and  C_6
REMARK    6  A    between atoms: C_5  and  N_23
REMARK    7  A    between atoms: C_16  and  N_24
REMARK                            x       y       z     vdW  Elec       q    Type
REMARK                         _______ _______ _______ _____ _____    ______ ____
ROOT
ATOM      1  C   UNL     1     -45.263  -4.071 -32.002  0.00  0.00    +0.000 C 
ENDROOT
BRANCH   1   2
ATOM      2  C   UNL     1     -44.199  -3.022 -32.220  0.00  0.00    +0.000 A 
ATOM      3  C   UNL     1     -44.494  -1.651 -32.162  0.00  0.00    +0.000 A 
ATOM      4  C   UNL     1     -43.489  -0.706 -32.380  0.00  0.00    +0.000 A 
ATOM      5  C   UNL     1     -42.183  -1.118 -32.664  0.00  0.00    +0.000 A 
ATOM      6  C   UNL     1     -41.885  -2.491 -32.734  0.00  0.00    +0.000 A 
ATOM      7  C   UNL     1     -42.895  -3.433 -32.515  0.00  0.00    +0.000 A 
ATOM      8 CL   UNL     1     -40.952   0.105 -32.927  0.00  0.00    +0.000 Cl
ATOM      9 CL   UNL     1     -40.261  -3.061 -33.088  0.00  0.00    +0.000 Cl
ENDBRANCH   1   2
BRANCH   1  14
ATOM     10  C   UNL     1     -45.142  -5.537 -30.052  0.00  0.00    +0.000 C 
ATOM     11  C   UNL     1     -45.683  -5.743 -28.635  0.00  0.00    +0.000 C 
ATOM     12  C   UNL     1     -47.534  -4.510 -29.041  0.00  0.00    +0.000 C 
ATOM     13  C   UNL     1     -47.118  -4.221 -30.485  0.00  0.00    +0.000 C 
ATOM     14  N   UNL     1     -45.657  -4.268 -30.594  0.00  0.00    +0.000 NA
ATOM     15  O   UNL     1     -47.089  -5.792 -28.668  0.00  0.00    +0.000 OA
ENDBRANCH   1  14
BRANCH   1  16
ATOM     16  C   UNL     1     -46.471  -3.854 -32.912  0.00  0.00    +0.000 C 
BRANCH  16  17
ATOM     17  C   UNL     1     -46.576  -4.951 -33.915  0.00  0.00    +0.000 C 
ATOM     18  N   UNL     1     -45.693  -6.070 -33.831  0.00  0.00    +0.000 NA
ATOM     19  O   UNL     1     -47.431  -4.872 -34.839  0.00  0.00    +0.000 OA
BRANCH  18  21
ATOM     20  C   UNL     1     -44.432  -7.013 -35.682  0.00  0.00    +0.000 C 
ATOM     21  C   UNL     1     -45.678  -7.142 -34.817  0.00  0.00    +0.000 C 
BRANCH  21  22
ATOM     22  C   UNL     1     -45.696  -8.503 -34.111  0.00  0.00    +0.000 C 
ATOM     23  C   UNL     1     -46.782  -8.556 -33.030  0.00  0.00    +0.000 C 
BRANCH  22  28
ATOM     24  C   UNL     1     -45.656 -10.881 -34.366  0.00  0.00    +0.000 C 
ATOM     25  C   UNL     1     -46.016 -12.069 -35.272  0.00  0.00    +0.000 C 
ATOM     26  C   UNL     1     -47.270 -10.823 -36.670  0.00  0.00    +0.000 C 
ATOM     27  C   UNL     1     -47.078  -9.558 -35.817  0.00  0.00    +0.000 C 
ATOM     28  N   UNL     1     -45.804  -9.606 -35.080  0.00  0.00    +0.000 NA
ATOM     29  O   UNL     1     -46.137 -11.654 -36.610  0.00  0.00    +0.000 OA
ENDBRANCH  22  28
ENDBRANCH  21  22
ENDBRANCH  18  21
ENDBRANCH  16  17
ENDBRANCH   1  16
TORSDOF 7
ENDMDL
MODEL 3
REMARK VINA RESULT:      -5.8      9.984     13.853
REMARK  Name = ZINC000253420118 PubChem-124883398
REMARK  7 active torsions:
REMARK  status: ('A' for Active; 'I' for Inactive)
REMARK    1  A    between atoms: C_2  and  C_16
REMARK    2  A    between atoms: C_2  and  N_22
REMARK    3  A    between atoms: C_3  and  C_4
REMARK    4  A    between atoms: C_4  and  C_5
REMARK    5  A    between atoms: C_5  and  C_6
REMARK    6  A    between atoms: C_5  and  N_23
REMARK    7  A    between atoms: C_16  and  N_24
REMARK                            x       y       z     vdW  Elec       q    Type
REMARK                         _______ _______ _______ _____ _____    ______ ____
ROOT
ATOM      1  C   UNL     1     -45.094 -16.420 -23.887  0.00  0.00    +0.000 C 
ENDROOT
BRANCH   1   2
ATOM      2  C   UNL     1     -45.529 -16.194 -22.460  0.00  0.00    +0.000 A 
ATOM      3  C   UNL     1     -46.083 -14.972 -22.043  0.00  0.00    +0.000 A 
ATOM      4  C   UNL     1     -46.465 -14.792 -20.713  0.00  0.00    +0.000 A 
ATOM      5  C   UNL     1     -46.293 -15.822 -19.783  0.00  0.00    +0.000 A 
ATOM      6  C   UNL     1     -45.730 -17.044 -20.193  0.00  0.00    +0.000 A 
ATOM      7  C   UNL     1     -45.348 -17.220 -21.526  0.00  0.00    +0.000 A 
ATOM      8 CL   UNL     1     -46.792 -15.551 -18.122  0.00  0.00    +0.000 Cl
ATOM      9 CL   UNL     1     -45.492 -18.370 -19.065  0.00  0.00    +0.000 Cl
ENDBRANCH   1   2
BRANCH   1  14
ATOM     10  C   UNL     1     -43.397 -17.821 -24.948  0.00  0.00    +0.000 C 
ATOM     11  C   UNL     1     -43.062 -19.263 -25.337  0.00  0.00    +0.000 C 
ATOM     12  C   UNL     1     -45.234 -19.890 -25.323  0.00  0.00    +0.000 C 
ATOM     13  C   UNL     1     -45.715 -18.490 -24.933  0.00  0.00    +0.000 C 
ATOM     14  N   UNL     1     -44.659 -17.797 -24.190  0.00  0.00    +0.000 NA
ATOM     15  O   UNL     1     -44.092 -19.788 -26.139  0.00  0.00    +0.000 OA
ENDBRANCH   1  14
BRANCH   1  16
ATOM     16  C   UNL     1     -46.133 -15.913 -24.887  0.00  0.00    +0.000 C 
BRANCH  16  17
ATOM     17  C   UNL     1     -45.672 -14.650 -25.528  0.00  0.00    +0.000 C 
ATOM     18  N   UNL     1     -44.339 -14.564 -26.036  0.00  0.00    +0.000 NA
ATOM     19  O   UNL     1     -46.454 -13.665 -25.600  0.00  0.00    +0.000 OA
BRANCH  18  21
ATOM     20  C   UNL     1     -42.388 -13.116 -26.050  0.00  0.00    +0.000 C 
ATOM     21  C   UNL     1     -43.787 -13.340 -26.604  0.00  0.00    +0.000 C 
BRANCH  21  22
ATOM     22  C   UNL     1     -43.743 -13.447 -28.133  0.00  0.00    +0.000 C 
ATOM     23  C   UNL     1     -43.832 -14.907 -28.593  0.00  0.00    +0.000 C 
BRANCH  22  28
ATOM     24  C   UNL     1     -45.944 -13.411 -29.069  0.00  0.00    +0.000 C 
ATOM     25  C   UNL     1     -47.137 -12.534 -29.481  0.00  0.00    +0.000 C 
ATOM     26  C   UNL     1     -46.335 -10.693 -28.456  0.00  0.00    +0.000 C 
ATOM     27  C   UNL     1     -45.126 -11.456 -27.891  0.00  0.00    +0.000 C 
ATOM     28  N   UNL     1     -44.765 -12.592 -28.757  0.00  0.00    +0.000 NA
ATOM     29  O   UNL     1     -46.723 -11.209 -29.707  0.00  0.00    +0.000 OA
ENDBRANCH  22  28
ENDBRANCH  21  22
ENDBRANCH  18  21
ENDBRANCH  16  17
ENDBRANCH   1  16
TORSDOF 7
ENDMDL
