MODEL 1
REMARK VINA RESULT:      -6.6      0.000      0.000
REMARK  Name = ZINC000032674352 ZINC32674352 PubChem-39910230
REMARK  6 active torsions:
REMARK  status: ('A' for Active; 'I' for Inactive)
REMARK    1  A    between atoms: C_2  and  O_24
REMARK    2  A    between atoms: C_5  and  C_8
REMARK    3  A    between atoms: C_8  and  C_9
REMARK    4  A    between atoms: C_8  and  N_30
REMARK    5  A    between atoms: C_9  and  N_29
REMARK    6  A    between atoms: C_10  and  C_11
REMARK                            x       y       z     vdW  Elec       q    Type
REMARK                         _______ _______ _______ _____ _____    ______ ____
ROOT
ATOM      1  C   UNL     1     -45.096 -14.631 -25.383  0.00  0.00    +0.000 C 
ENDROOT
BRANCH   1   5
ATOM      2  C   UNL     1     -44.486 -18.811 -24.472  0.00  0.00    +0.000 A 
ATOM      3  C   UNL     1     -43.395 -17.944 -24.639  0.00  0.00    +0.000 A 
ATOM      4  C   UNL     1     -43.605 -16.594 -24.934  0.00  0.00    +0.000 A 
ATOM      5  C   UNL     1     -44.905 -16.094 -25.061  0.00  0.00    +0.000 A 
ATOM      6  C   UNL     1     -45.996 -16.962 -24.895  0.00  0.00    +0.000 A 
ATOM      7  C   UNL     1     -45.786 -18.311 -24.603  0.00  0.00    +0.000 A 
BRANCH   2   9
ATOM      8  C   UNL     1     -43.125 -20.671 -23.572  0.00  0.00    +0.000 C 
ATOM      9  O   UNL     1     -44.309 -20.165 -24.172  0.00  0.00    +0.000 OA
ENDBRANCH   2   9
ENDBRANCH   1   5
BRANCH   1  15
ATOM     10  C   UNL     1     -46.402 -13.082 -26.668  0.00  0.00    +0.000 C 
ATOM     11  C   UNL     1     -46.947 -12.761 -28.062  0.00  0.00    +0.000 C 
ATOM     12  C   UNL     1     -45.319 -13.947 -29.091  0.00  0.00    +0.000 C 
ATOM     13  C   UNL     1     -44.669 -14.342 -27.764  0.00  0.00    +0.000 C 
ATOM     14  O   UNL     1     -45.884 -12.663 -28.978  0.00  0.00    +0.000 OA
ATOM     15  N   UNL     1     -45.687 -14.361 -26.706  0.00  0.00    +0.000 NA
ENDBRANCH   1  15
BRANCH   1  16
ATOM     16  C   UNL     1     -45.831 -13.884 -24.272  0.00  0.00    +0.000 C 
BRANCH  16  19
ATOM     17  C   UNL     1     -45.763 -13.986 -21.738  0.00  0.00    +0.000 C 
ATOM     18  O   UNL     1     -46.996 -13.736 -21.657  0.00  0.00    +0.000 OA
ATOM     19  N   UNL     1     -45.110 -14.010 -23.013  0.00  0.00    +0.000 NA
BRANCH  17  20
ATOM     20  C   UNL     1     -44.981 -14.230 -20.487  0.00  0.00    +0.000 C 
ATOM     21  C   UNL     1     -44.164 -15.527 -20.585  0.00  0.00    +0.000 C 
ATOM     22  C   UNL     1     -45.001 -16.747 -20.314  0.00  0.00    +0.000 A 
ATOM     23  C   UNL     1     -44.637 -17.970 -20.884  0.00  0.00    +0.000 A 
ATOM     24  C   UNL     1     -45.381 -19.122 -20.610  0.00  0.00    +0.000 A 
ATOM     25  C   UNL     1     -46.489 -19.054 -19.761  0.00  0.00    +0.000 A 
ATOM     26  C   UNL     1     -46.858 -17.834 -19.186  0.00  0.00    +0.000 A 
ATOM     27  C   UNL     1     -46.118 -16.677 -19.461  0.00  0.00    +0.000 A 
ATOM     28  C   UNL     1     -46.492 -15.373 -18.893  0.00  0.00    +0.000 C 
ATOM     29  O   UNL     1     -47.382 -15.285 -18.006  0.00  0.00    +0.000 OA
ATOM     30  O   UNL     1     -45.836 -14.221 -19.339  0.00  0.00    +0.000 OA
ENDBRANCH  17  20
ENDBRANCH  16  19
ENDBRANCH   1  16
TORSDOF 6
ENDMDL
MODEL 2
REMARK VINA RESULT:      -6.1      2.029      6.440
REMARK  Name = ZINC000032674352 ZINC32674352 PubChem-39910230
REMARK  6 active torsions:
REMARK  status: ('A' for Active; 'I' for Inactive)
REMARK    1  A    between atoms: C_2  and  O_24
REMARK    2  A    between atoms: C_5  and  C_8
REMARK    3  A    between atoms: C_8  and  C_9
REMARK    4  A    between atoms: C_8  and  N_30
REMARK    5  A    between atoms: C_9  and  N_29
REMARK    6  A    between atoms: C_10  and  C_11
REMARK                            x       y       z     vdW  Elec       q    Type
REMARK                         _______ _______ _______ _____ _____    ______ ____
ROOT
ATOM      1  C   UNL     1     -45.651 -15.008 -20.507  0.00  0.00    +0.000 C 
ENDROOT
BRANCH   1   5
ATOM      2  C   UNL     1     -43.905 -18.888 -21.265  0.00  0.00    +0.000 A 
ATOM      3  C   UNL     1     -43.155 -17.714 -21.444  0.00  0.00    +0.000 A 
ATOM      4  C   UNL     1     -43.732 -16.464 -21.196  0.00  0.00    +0.000 A 
ATOM      5  C   UNL     1     -45.058 -16.374 -20.763  0.00  0.00    +0.000 A 
ATOM      6  C   UNL     1     -45.808 -17.547 -20.585  0.00  0.00    +0.000 A 
ATOM      7  C   UNL     1     -45.233 -18.795 -20.835  0.00  0.00    +0.000 A 
BRANCH   2   9
ATOM      8  C   UNL     1     -42.151 -20.344 -22.227  0.00  0.00    +0.000 C 
ATOM      9  O   UNL     1     -43.356 -20.152 -21.500  0.00  0.00    +0.000 OA
ENDBRANCH   2   9
ENDBRANCH   1   5
BRANCH   1  15
ATOM     10  C   UNL     1     -45.551 -12.989 -19.214  0.00  0.00    +0.000 C 
ATOM     11  C   UNL     1     -45.311 -12.408 -17.819  0.00  0.00    +0.000 C 
ATOM     12  C   UNL     1     -45.888 -14.341 -16.797  0.00  0.00    +0.000 C 
ATOM     13  C   UNL     1     -46.166 -15.045 -18.125  0.00  0.00    +0.000 C 
ATOM     14  O   UNL     1     -46.216 -12.977 -16.905  0.00  0.00    +0.000 OA
ATOM     15  N   UNL     1     -45.344 -14.440 -19.182  0.00  0.00    +0.000 NA
ENDBRANCH   1  15
BRANCH   1  16
ATOM     16  C   UNL     1     -45.343 -14.021 -21.631  0.00  0.00    +0.000 C 
BRANCH  16  19
ATOM     17  C   UNL     1     -45.411 -14.360 -24.144  0.00  0.00    +0.000 C 
ATOM     18  O   UNL     1     -44.265 -13.852 -24.282  0.00  0.00    +0.000 OA
ATOM     19  N   UNL     1     -46.030 -14.414 -22.853  0.00  0.00    +0.000 NA
BRANCH  17  20
ATOM     20  C   UNL     1     -46.132 -14.880 -25.347  0.00  0.00    +0.000 C 
ATOM     21  C   UNL     1     -46.748 -16.260 -25.073  0.00  0.00    +0.000 C 
ATOM     22  C   UNL     1     -45.736 -17.366 -25.185  0.00  0.00    +0.000 A 
ATOM     23  C   UNL     1     -45.923 -18.545 -24.456  0.00  0.00    +0.000 A 
ATOM     24  C   UNL     1     -45.012 -19.599 -24.580  0.00  0.00    +0.000 A 
ATOM     25  C   UNL     1     -43.916 -19.479 -25.438  0.00  0.00    +0.000 A 
ATOM     26  C   UNL     1     -43.723 -18.304 -26.172  0.00  0.00    +0.000 A 
ATOM     27  C   UNL     1     -44.631 -17.245 -26.047  0.00  0.00    +0.000 A 
ATOM     28  C   UNL     1     -44.446 -15.986 -26.785  0.00  0.00    +0.000 C 
ATOM     29  O   UNL     1     -43.568 -15.884 -27.681  0.00  0.00    +0.000 OA
ATOM     30  O   UNL     1     -45.272 -14.895 -26.492  0.00  0.00    +0.000 OA
ENDBRANCH  17  20
ENDBRANCH  16  19
ENDBRANCH   1  16
TORSDOF 6
ENDMDL
MODEL 3
REMARK VINA RESULT:      -6.1      9.119     13.066
REMARK  Name = ZINC000032674352 ZINC32674352 PubChem-39910230
REMARK  6 active torsions:
REMARK  status: ('A' for Active; 'I' for Inactive)
REMARK    1  A    between atoms: C_2  and  O_24
REMARK    2  A    between atoms: C_5  and  C_8
REMARK    3  A    between atoms: C_8  and  C_9
REMARK    4  A    between atoms: C_8  and  N_30
REMARK    5  A    between atoms: C_9  and  N_29
REMARK    6  A    between atoms: C_10  and  C_11
REMARK                            x       y       z     vdW  Elec       q    Type
REMARK                         _______ _______ _______ _____ _____    ______ ____
ROOT
ATOM      1  C   UNL     1     -45.289  -4.196 -31.526  0.00  0.00    +0.000 C 
ENDROOT
BRANCH   1   5
ATOM      2  C   UNL     1     -46.037  -5.738 -27.559  0.00  0.00    +0.000 A 
ATOM      3  C   UNL     1     -46.917  -4.818 -28.151  0.00  0.00    +0.000 A 
ATOM      4  C   UNL     1     -46.664  -4.326 -29.435  0.00  0.00    +0.000 A 
ATOM      5  C   UNL     1     -45.534  -4.749 -30.142  0.00  0.00    +0.000 A 
ATOM      6  C   UNL     1     -44.654  -5.669 -29.550  0.00  0.00    +0.000 A 
ATOM      7  C   UNL     1     -44.906  -6.158 -28.266  0.00  0.00    +0.000 A 
BRANCH   2   9
ATOM      8  C   UNL     1     -45.311  -7.047 -25.589  0.00  0.00    +0.000 C 
ATOM      9  O   UNL     1     -46.265  -6.253 -26.280  0.00  0.00    +0.000 OA
ENDBRANCH   2   9
ENDBRANCH   1   5
BRANCH   1  15
ATOM     10  C   UNL     1     -43.197  -3.312 -32.301  0.00  0.00    +0.000 C 
ATOM     11  C   UNL     1     -42.339  -2.050 -32.417  0.00  0.00    +0.000 C 
ATOM     12  C   UNL     1     -44.140  -0.686 -32.314  0.00  0.00    +0.000 C 
ATOM     13  C   UNL     1     -45.113  -1.859 -32.193  0.00  0.00    +0.000 C 
ATOM     14  O   UNL     1     -43.047  -1.057 -33.119  0.00  0.00    +0.000 OA
ATOM     15  N   UNL     1     -44.429  -3.000 -31.570  0.00  0.00    +0.000 NA
ENDBRANCH   1  15
BRANCH   1  16
ATOM     16  C   UNL     1     -44.818  -5.269 -32.505  0.00  0.00    +0.000 C 
BRANCH  16  19
ATOM     17  C   UNL     1     -45.551  -7.663 -32.910  0.00  0.00    +0.000 C 
ATOM     18  O   UNL     1     -44.360  -8.041 -33.076  0.00  0.00    +0.000 OA
ATOM     19  N   UNL     1     -45.850  -6.280 -32.686  0.00  0.00    +0.000 NA
BRANCH  17  20
ATOM     20  C   UNL     1     -46.656  -8.670 -32.979  0.00  0.00    +0.000 C 
ATOM     21  C   UNL     1     -47.678  -8.451 -31.854  0.00  0.00    +0.000 C 
ATOM     22  C   UNL     1     -47.216  -9.030 -30.545  0.00  0.00    +0.000 A 
ATOM     23  C   UNL     1     -47.677  -8.476 -29.348  0.00  0.00    +0.000 A 
ATOM     24  C   UNL     1     -47.288  -9.028 -28.123  0.00  0.00    +0.000 A 
ATOM     25  C   UNL     1     -46.440 -10.138 -28.093  0.00  0.00    +0.000 A 
ATOM     26  C   UNL     1     -45.976 -10.698 -29.287  0.00  0.00    +0.000 A 
ATOM     27  C   UNL     1     -46.360 -10.146 -30.516  0.00  0.00    +0.000 A 
ATOM     28  C   UNL     1     -45.871 -10.695 -31.790  0.00  0.00    +0.000 C 
ATOM     29  O   UNL     1     -45.234 -11.780 -31.825  0.00  0.00    +0.000 OA
ATOM     30  O   UNL     1     -46.133 -10.003 -32.977  0.00  0.00    +0.000 OA
ENDBRANCH  17  20
ENDBRANCH  16  19
ENDBRANCH   1  16
TORSDOF 6
ENDMDL
