MODEL 1
REMARK VINA RESULT:      -6.8      0.000      0.000
REMARK  Name = ZINC000096182878 ZINC96182878 PubChem-97458170
REMARK  3 active torsions:
REMARK  status: ('A' for Active; 'I' for Inactive)
REMARK    1  A    between atoms: C_6  and  N_21
REMARK    2  A    between atoms: C_8  and  C_9
REMARK    3  A    between atoms: C_10  and  C_14
REMARK                            x       y       z     vdW  Elec       q    Type
REMARK                         _______ _______ _______ _____ _____    ______ ____
ROOT
ATOM      1  C   UNL     1     -45.930  -3.394 -31.244  0.00  0.00    +0.000 C 
ATOM      2  C   UNL     1     -44.615  -3.930 -31.844  0.00  0.00    +0.000 C 
ATOM      3  C   UNL     1     -46.163  -5.013 -33.507  0.00  0.00    +0.000 C 
ATOM      4  C   UNL     1     -47.318  -4.346 -32.836  0.00  0.00    +0.000 C 
ATOM      5  C   UNL     1     -43.748  -5.681 -33.436  0.00  0.00    +0.000 C 
ATOM      6  N   UNL     1     -44.854  -4.874 -32.940  0.00  0.00    +0.000 N 
ATOM      7  O   UNL     1     -46.357  -5.737 -34.519  0.00  0.00    +0.000 OA
ATOM      8  O   UNL     1     -46.922  -3.137 -32.224  0.00  0.00    +0.000 OA
ENDROOT
BRANCH   2   9
ATOM      9  C   UNL     1     -43.744  -2.798 -32.299  0.00  0.00    +0.000 A 
ATOM     10  C   UNL     1     -42.356  -2.914 -32.178  0.00  0.00    +0.000 A 
ATOM     11  C   UNL     1     -41.523  -1.873 -32.603  0.00  0.00    +0.000 A 
ATOM     12  C   UNL     1     -42.078  -0.713 -33.151  0.00  0.00    +0.000 A 
ATOM     13  C   UNL     1     -43.465  -0.593 -33.276  0.00  0.00    +0.000 A 
ATOM     14  C   UNL     1     -44.298  -1.632 -32.852  0.00  0.00    +0.000 A 
ATOM     15  F   UNL     1     -41.271   0.295 -33.561  0.00  0.00    +0.000 F 
ENDBRANCH   2   9
BRANCH   1  16
ATOM     16  C   UNL     1     -46.431  -4.195 -30.077  0.00  0.00    +0.000 C 
ATOM     17  N   UNL     1     -45.638  -5.269 -29.551  0.00  0.00    +0.000 NA
ATOM     18  O   UNL     1     -47.563  -3.927 -29.595  0.00  0.00    +0.000 OA
BRANCH  17  24
ATOM     19  C   UNL     1     -46.501  -6.016 -24.704  0.00  0.00    +0.000 C 
ATOM     20  C   UNL     1     -46.405  -6.526 -26.096  0.00  0.00    +0.000 A 
ATOM     21  C   UNL     1     -46.647  -7.876 -26.364  0.00  0.00    +0.000 A 
ATOM     22  C   UNL     1     -46.555  -8.355 -27.674  0.00  0.00    +0.000 A 
ATOM     23  C   UNL     1     -46.222  -7.484 -28.715  0.00  0.00    +0.000 A 
ATOM     24  C   UNL     1     -45.978  -6.131 -28.455  0.00  0.00    +0.000 A 
ATOM     25  C   UNL     1     -46.071  -5.656 -27.138  0.00  0.00    +0.000 A 
ATOM     26  C   UNL     1     -46.812  -9.790 -27.959  0.00  0.00    +0.000 C 
ENDBRANCH  17  24
ENDBRANCH   1  16
TORSDOF 3
ENDMDL
MODEL 2
REMARK VINA RESULT:      -6.6      6.820      9.957
REMARK  Name = ZINC000096182878 ZINC96182878 PubChem-97458170
REMARK  3 active torsions:
REMARK  status: ('A' for Active; 'I' for Inactive)
REMARK    1  A    between atoms: C_6  and  N_21
REMARK    2  A    between atoms: C_8  and  C_9
REMARK    3  A    between atoms: C_10  and  C_14
REMARK                            x       y       z     vdW  Elec       q    Type
REMARK                         _______ _______ _______ _____ _____    ______ ____
ROOT
ATOM      1  C   UNL     1     -46.176 -12.026 -26.110  0.00  0.00    +0.000 C 
ATOM      2  C   UNL     1     -45.130 -11.158 -26.837  0.00  0.00    +0.000 C 
ATOM      3  C   UNL     1     -46.104 -12.234 -28.893  0.00  0.00    +0.000 C 
ATOM      4  C   UNL     1     -47.096 -12.941 -28.030  0.00  0.00    +0.000 C 
ATOM      5  C   UNL     1     -43.976 -10.920 -29.065  0.00  0.00    +0.000 C 
ATOM      6  N   UNL     1     -45.082 -11.442 -28.274  0.00  0.00    +0.000 N 
ATOM      7  O   UNL     1     -46.134 -12.391 -30.142  0.00  0.00    +0.000 OA
ATOM      8  O   UNL     1     -47.368 -12.202 -26.857  0.00  0.00    +0.000 OA
ENDROOT
BRANCH   2   9
ATOM      9  C   UNL     1     -45.392  -9.702 -26.591  0.00  0.00    +0.000 A 
ATOM     10  C   UNL     1     -44.662  -9.036 -25.601  0.00  0.00    +0.000 A 
ATOM     11  C   UNL     1     -44.884  -7.677 -25.359  0.00  0.00    +0.000 A 
ATOM     12  C   UNL     1     -45.836  -6.979 -26.108  0.00  0.00    +0.000 A 
ATOM     13  C   UNL     1     -46.566  -7.640 -27.100  0.00  0.00    +0.000 A 
ATOM     14  C   UNL     1     -46.345  -8.999 -27.342  0.00  0.00    +0.000 A 
ATOM     15  F   UNL     1     -46.050  -5.663 -25.873  0.00  0.00    +0.000 F 
ENDBRANCH   2   9
BRANCH   1  16
ATOM     16  C   UNL     1     -45.619 -13.307 -25.558  0.00  0.00    +0.000 C 
ATOM     17  N   UNL     1     -46.453 -14.175 -24.776  0.00  0.00    +0.000 NA
ATOM     18  O   UNL     1     -44.409 -13.584 -25.766  0.00  0.00    +0.000 OA
BRANCH  17  24
ATOM     19  C   UNL     1     -45.545 -19.062 -25.074  0.00  0.00    +0.000 C 
ATOM     20  C   UNL     1     -45.621 -17.804 -24.286  0.00  0.00    +0.000 A 
ATOM     21  C   UNL     1     -45.317 -17.813 -22.922  0.00  0.00    +0.000 A 
ATOM     22  C   UNL     1     -45.389 -16.630 -22.183  0.00  0.00    +0.000 A 
ATOM     23  C   UNL     1     -45.765 -15.437 -22.808  0.00  0.00    +0.000 A 
ATOM     24  C   UNL     1     -46.071 -15.419 -24.173  0.00  0.00    +0.000 A 
ATOM     25  C   UNL     1     -45.997 -16.610 -24.910  0.00  0.00    +0.000 A 
ATOM     26  C   UNL     1     -45.067 -16.640 -20.733  0.00  0.00    +0.000 C 
ENDBRANCH  17  24
ENDBRANCH   1  16
TORSDOF 3
ENDMDL
MODEL 3
REMARK VINA RESULT:      -6.5     10.523     13.371
REMARK  Name = ZINC000096182878 ZINC96182878 PubChem-97458170
REMARK  3 active torsions:
REMARK  status: ('A' for Active; 'I' for Inactive)
REMARK    1  A    between atoms: C_6  and  N_21
REMARK    2  A    between atoms: C_8  and  C_9
REMARK    3  A    between atoms: C_10  and  C_14
REMARK                            x       y       z     vdW  Elec       q    Type
REMARK                         _______ _______ _______ _____ _____    ______ ____
ROOT
ATOM      1  C   UNL     1     -45.118 -16.565 -25.623  0.00  0.00    +0.000 C 
ATOM      2  C   UNL     1     -44.693 -15.084 -25.656  0.00  0.00    +0.000 C 
ATOM      3  C   UNL     1     -42.373 -16.057 -25.641  0.00  0.00    +0.000 C 
ATOM      4  C   UNL     1     -42.967 -17.426 -25.684  0.00  0.00    +0.000 C 
ATOM      5  C   UNL     1     -42.693 -13.600 -25.262  0.00  0.00    +0.000 C 
ATOM      6  N   UNL     1     -43.242 -14.924 -25.525  0.00  0.00    +0.000 N 
ATOM      7  O   UNL     1     -41.121 -15.916 -25.642  0.00  0.00    +0.000 OA
ATOM      8  O   UNL     1     -44.226 -17.413 -26.325  0.00  0.00    +0.000 OA
ENDROOT
BRANCH   2   9
ATOM      9  C   UNL     1     -45.191 -14.421 -26.905  0.00  0.00    +0.000 A 
ATOM     10  C   UNL     1     -46.294 -13.564 -26.830  0.00  0.00    +0.000 A 
ATOM     11  C   UNL     1     -46.770 -12.930 -27.982  0.00  0.00    +0.000 A 
ATOM     12  C   UNL     1     -46.144 -13.150 -29.212  0.00  0.00    +0.000 A 
ATOM     13  C   UNL     1     -45.040 -14.004 -29.292  0.00  0.00    +0.000 A 
ATOM     14  C   UNL     1     -44.563 -14.638 -28.141  0.00  0.00    +0.000 A 
ATOM     15  F   UNL     1     -46.607 -12.536 -30.327  0.00  0.00    +0.000 F 
ENDBRANCH   2   9
BRANCH   1  16
ATOM     16  C   UNL     1     -45.464 -17.063 -24.248  0.00  0.00    +0.000 C 
ATOM     17  N   UNL     1     -45.246 -16.223 -23.105  0.00  0.00    +0.000 NA
ATOM     18  O   UNL     1     -45.915 -18.231 -24.119  0.00  0.00    +0.000 OA
BRANCH  17  24
ATOM     19  C   UNL     1     -45.106 -19.417 -19.288  0.00  0.00    +0.000 C 
ATOM     20  C   UNL     1     -45.457 -18.088 -19.853  0.00  0.00    +0.000 A 
ATOM     21  C   UNL     1     -46.062 -17.123 -19.044  0.00  0.00    +0.000 A 
ATOM     22  C   UNL     1     -46.392 -15.874 -19.576  0.00  0.00    +0.000 A 
ATOM     23  C   UNL     1     -46.117 -15.591 -20.918  0.00  0.00    +0.000 A 
ATOM     24  C   UNL     1     -45.511 -16.552 -21.735  0.00  0.00    +0.000 A 
ATOM     25  C   UNL     1     -45.182 -17.804 -21.194  0.00  0.00    +0.000 A 
ATOM     26  C   UNL     1     -47.036 -14.847 -18.717  0.00  0.00    +0.000 C 
ENDBRANCH  17  24
ENDBRANCH   1  16
TORSDOF 3
ENDMDL
