MODEL 1
REMARK VINA RESULT:      -5.9      0.000      0.000
REMARK  Name = ZINC000072241409 ZINC72241409 PubChem-95739679
REMARK  2 active torsions:
REMARK  status: ('A' for Active; 'I' for Inactive)
REMARK    1  A    between atoms: C_5  and  C_6
REMARK    2  A    between atoms: C_7  and  C_11
REMARK                            x       y       z     vdW  Elec       q    Type
REMARK                         _______ _______ _______ _____ _____    ______ ____
ROOT
ATOM      1  C   UNL     1     -44.478 -16.187 -23.856  0.00  0.00    +0.000 C 
ATOM      2  C   UNL     1     -45.079 -17.603 -23.757  0.00  0.00    +0.000 C 
ATOM      3  C   UNL     1     -43.487 -18.090 -25.644  0.00  0.00    +0.000 C 
ATOM      4  C   UNL     1     -42.973 -16.689 -25.546  0.00  0.00    +0.000 C 
ATOM      5  C   UNL     1     -45.253 -19.763 -25.046  0.00  0.00    +0.000 C 
ATOM      6  N   UNL     1     -44.592 -18.485 -24.823  0.00  0.00    +0.000 N 
ATOM      7  O   UNL     1     -42.988 -18.883 -26.486  0.00  0.00    +0.000 OA
ATOM      8  O   UNL     1     -43.111 -16.190 -24.232  0.00  0.00    +0.000 OA
ENDROOT
BRANCH   1  13
ATOM      9  C   UNL     1     -46.529  -9.538 -26.572  0.00  0.00    +0.000 C 
ATOM     10  C   UNL     1     -46.381 -10.971 -26.201  0.00  0.00    +0.000 A 
ATOM     11  C   UNL     1     -45.386 -11.490 -25.396  0.00  0.00    +0.000 A 
ATOM     12  C   UNL     1     -45.720 -12.831 -25.386  0.00  0.00    +0.000 A 
ATOM     13  C   UNL     1     -45.317 -15.229 -24.651  0.00  0.00    +0.000 C 
ATOM     14  N   UNL     1     -46.819 -13.072 -26.125  0.00  0.00    +0.000 NA
ATOM     15  N   UNL     1     -44.986 -13.834 -24.678  0.00  0.00    +0.000 NA
ATOM     16  O   UNL     1     -47.190 -11.922 -26.601  0.00  0.00    +0.000 OA
ATOM     17  O   UNL     1     -46.326 -15.665 -25.265  0.00  0.00    +0.000 OA
ENDBRANCH   1  13
BRANCH   2  18
ATOM     18  C   UNL     1     -44.805 -18.198 -22.409  0.00  0.00    +0.000 A 
ATOM     19  C   UNL     1     -45.822 -18.208 -21.448  0.00  0.00    +0.000 A 
ATOM     20  C   UNL     1     -45.591 -18.764 -20.186  0.00  0.00    +0.000 A 
ATOM     21  C   UNL     1     -44.343 -19.313 -19.881  0.00  0.00    +0.000 A 
ATOM     22  C   UNL     1     -43.323 -19.309 -20.839  0.00  0.00    +0.000 A 
ATOM     23  C   UNL     1     -43.553 -18.753 -22.100  0.00  0.00    +0.000 A 
ATOM     24 CL   UNL     1     -44.054 -20.009 -18.301  0.00  0.00    +0.000 Cl
ENDBRANCH   2  18
TORSDOF 2
ENDMDL
MODEL 2
REMARK VINA RESULT:      -5.9      9.679     15.253
REMARK  Name = ZINC000072241409 ZINC72241409 PubChem-95739679
REMARK  2 active torsions:
REMARK  status: ('A' for Active; 'I' for Inactive)
REMARK    1  A    between atoms: C_5  and  C_6
REMARK    2  A    between atoms: C_7  and  C_11
REMARK                            x       y       z     vdW  Elec       q    Type
REMARK                         _______ _______ _______ _____ _____    ______ ____
ROOT
ATOM      1  C   UNL     1     -45.589  -3.832 -30.785  0.00  0.00    +0.000 C 
ATOM      2  C   UNL     1     -44.540  -4.257 -31.831  0.00  0.00    +0.000 C 
ATOM      3  C   UNL     1     -46.558  -4.532 -33.309  0.00  0.00    +0.000 C 
ATOM      4  C   UNL     1     -47.418  -4.026 -32.196  0.00  0.00    +0.000 C 
ATOM      5  C   UNL     1     -44.339  -5.423 -34.057  0.00  0.00    +0.000 C 
ATOM      6  N   UNL     1     -45.160  -4.732 -33.072  0.00  0.00    +0.000 N 
ATOM      7  O   UNL     1     -47.078  -4.833 -34.417  0.00  0.00    +0.000 OA
ATOM      8  O   UNL     1     -46.695  -3.152 -31.355  0.00  0.00    +0.000 OA
ENDROOT
BRANCH   1  13
ATOM      9  C   UNL     1     -46.128 -10.872 -28.348  0.00  0.00    +0.000 C 
ATOM     10  C   UNL     1     -46.184  -9.401 -28.556  0.00  0.00    +0.000 A 
ATOM     11  C   UNL     1     -45.644  -8.724 -29.632  0.00  0.00    +0.000 A 
ATOM     12  C   UNL     1     -45.979  -7.418 -29.325  0.00  0.00    +0.000 A 
ATOM     13  C   UNL     1     -45.983  -4.931 -29.842  0.00  0.00    +0.000 C 
ATOM     14  N   UNL     1     -46.657  -7.343 -28.164  0.00  0.00    +0.000 NA
ATOM     15  N   UNL     1     -45.643  -6.293 -30.139  0.00  0.00    +0.000 NA
ATOM     16  O   UNL     1     -46.761  -8.562 -27.730  0.00  0.00    +0.000 OA
ATOM     17  O   UNL     1     -46.637  -4.642 -28.806  0.00  0.00    +0.000 OA
ENDBRANCH   1  13
BRANCH   2  18
ATOM     18  C   UNL     1     -43.588  -3.134 -32.109  0.00  0.00    +0.000 A 
ATOM     19  C   UNL     1     -42.236  -3.423 -32.325  0.00  0.00    +0.000 A 
ATOM     20  C   UNL     1     -41.331  -2.392 -32.592  0.00  0.00    +0.000 A 
ATOM     21  C   UNL     1     -41.775  -1.068 -32.646  0.00  0.00    +0.000 A 
ATOM     22  C   UNL     1     -43.126  -0.773 -32.434  0.00  0.00    +0.000 A 
ATOM     23  C   UNL     1     -44.031  -1.803 -32.166  0.00  0.00    +0.000 A 
ATOM     24 CL   UNL     1     -40.641   0.223 -32.980  0.00  0.00    +0.000 Cl
ENDBRANCH   2  18
TORSDOF 2
ENDMDL
MODEL 3
REMARK VINA RESULT:      -5.7     10.026     12.922
REMARK  Name = ZINC000072241409 ZINC72241409 PubChem-95739679
REMARK  2 active torsions:
REMARK  status: ('A' for Active; 'I' for Inactive)
REMARK    1  A    between atoms: C_5  and  C_6
REMARK    2  A    between atoms: C_7  and  C_11
REMARK                            x       y       z     vdW  Elec       q    Type
REMARK                         _______ _______ _______ _____ _____    ______ ____
ROOT
ATOM      1  C   UNL     1     -46.588  -6.183 -31.235  0.00  0.00    +0.000 C 
ATOM      2  C   UNL     1     -45.450  -6.844 -30.434  0.00  0.00    +0.000 C 
ATOM      3  C   UNL     1     -46.412  -5.507 -28.531  0.00  0.00    +0.000 C 
ATOM      4  C   UNL     1     -47.492  -5.022 -29.444  0.00  0.00    +0.000 C 
ATOM      5  C   UNL     1     -44.188  -6.628 -28.262  0.00  0.00    +0.000 C 
ATOM      6  N   UNL     1     -45.362  -6.321 -29.067  0.00  0.00    +0.000 N 
ATOM      7  O   UNL     1     -46.402  -5.147 -27.324  0.00  0.00    +0.000 OA
ATOM      8  O   UNL     1     -47.756  -5.965 -30.462  0.00  0.00    +0.000 OA
ENDROOT
BRANCH   1  13
ATOM      9  C   UNL     1     -42.094  -0.530 -33.143  0.00  0.00    +0.000 C 
ATOM     10  C   UNL     1     -43.180  -1.537 -33.005  0.00  0.00    +0.000 A 
ATOM     11  C   UNL     1     -43.193  -2.580 -32.098  0.00  0.00    +0.000 A 
ATOM     12  C   UNL     1     -44.400  -3.182 -32.398  0.00  0.00    +0.000 A 
ATOM     13  C   UNL     1     -46.155  -4.979 -32.020  0.00  0.00    +0.000 C 
ATOM     14  N   UNL     1     -45.036  -2.542 -33.397  0.00  0.00    +0.000 NA
ATOM     15  N   UNL     1     -44.905  -4.340 -31.729  0.00  0.00    +0.000 NA
ATOM     16  O   UNL     1     -44.267  -1.553 -33.738  0.00  0.00    +0.000 OA
ATOM     17  O   UNL     1     -46.918  -4.525 -32.913  0.00  0.00    +0.000 OA
ENDBRANCH   1  13
BRANCH   2  18
ATOM     18  C   UNL     1     -45.609  -8.334 -30.423  0.00  0.00    +0.000 A 
ATOM     19  C   UNL     1     -44.744  -9.118 -31.194  0.00  0.00    +0.000 A 
ATOM     20  C   UNL     1     -44.870 -10.510 -31.194  0.00  0.00    +0.000 A 
ATOM     21  C   UNL     1     -45.861 -11.124 -30.423  0.00  0.00    +0.000 A 
ATOM     22  C   UNL     1     -46.727 -10.345 -29.648  0.00  0.00    +0.000 A 
ATOM     23  C   UNL     1     -46.602  -8.953 -29.647  0.00  0.00    +0.000 A 
ATOM     24 CL   UNL     1     -46.018 -12.867 -30.424  0.00  0.00    +0.000 Cl
ENDBRANCH   2  18
TORSDOF 2
ENDMDL
