MODEL 1
REMARK VINA RESULT:      -6.8      0.000      0.000
REMARK  Name = ZINC000020530876 ZINC20530876 PubChem-92688294
REMARK  7 active torsions:
REMARK  status: ('A' for Active; 'I' for Inactive)
REMARK    1  A    between atoms: C_2  and  O_23
REMARK    2  A    between atoms: C_5  and  C_9
REMARK    3  A    between atoms: C_7  and  O_24
REMARK    4  A    between atoms: C_11  and  C_14
REMARK    5  A    between atoms: C_17  and  O_29
REMARK    6  A    between atoms: C_18  and  O_28
REMARK    7  A    between atoms: C_19  and  O_27
REMARK                            x       y       z     vdW  Elec       q    Type
REMARK                         _______ _______ _______ _____ _____    ______ ____
ROOT
ATOM      1  C   UNL     1     -47.176  -3.756 -26.379  0.00  0.00    +0.000 C 
ATOM      2  C   UNL     1     -46.570  -5.559 -28.086  0.00  0.00    +0.000 C 
ATOM      3  C   UNL     1     -46.624  -5.209 -30.504  0.00  0.00    +0.000 C 
ATOM      4  C   UNL     1     -46.777  -6.722 -30.719  0.00  0.00    +0.000 C 
ATOM      5  C   UNL     1     -46.180  -7.490 -29.583  0.00  0.00    +0.000 C 
ATOM      6  O   UNL     1     -47.544  -2.934 -27.261  0.00  0.00    +0.000 OA
ATOM      7  O   UNL     1     -45.748  -8.657 -29.767  0.00  0.00    +0.000 OA
ATOM      8  N   UNL     1     -46.723  -5.068 -26.749  0.00  0.00    +0.000 NA
ATOM      9  N   UNL     1     -46.845  -4.804 -29.111  0.00  0.00    +0.000 NA
ATOM     10  N   UNL     1     -46.126  -6.903 -28.284  0.00  0.00    +0.000 NA
ENDROOT
BRANCH   1  14
ATOM     11  C   UNL     1     -47.246  -2.634 -22.240  0.00  0.00    +0.000 A 
ATOM     12  C   UNL     1     -47.304  -1.654 -23.245  0.00  0.00    +0.000 A 
ATOM     13  C   UNL     1     -47.285  -2.019 -24.592  0.00  0.00    +0.000 A 
ATOM     14  C   UNL     1     -47.207  -3.368 -24.958  0.00  0.00    +0.000 A 
ATOM     15  C   UNL     1     -47.150  -4.346 -23.957  0.00  0.00    +0.000 A 
ATOM     16  C   UNL     1     -47.167  -3.989 -22.600  0.00  0.00    +0.000 A 
BRANCH  11  18
ATOM     17  C   UNL     1     -46.185  -1.611 -20.251  0.00  0.00    +0.000 C 
ATOM     18  O   UNL     1     -47.262  -2.286 -20.885  0.00  0.00    +0.000 OA
ENDBRANCH  11  18
BRANCH  16  20
ATOM     19  C   UNL     1     -45.881  -5.481 -21.101  0.00  0.00    +0.000 C 
ATOM     20  O   UNL     1     -47.107  -4.960 -21.594  0.00  0.00    +0.000 OA
ENDBRANCH  16  20
ENDBRANCH   1  14
BRANCH   3  21
ATOM     21  C   UNL     1     -45.310  -4.683 -31.019  0.00  0.00    +0.000 A 
ATOM     22  C   UNL     1     -44.136  -5.305 -30.579  0.00  0.00    +0.000 A 
ATOM     23  C   UNL     1     -42.894  -4.897 -31.048  0.00  0.00    +0.000 A 
ATOM     24  C   UNL     1     -42.796  -3.857 -31.974  0.00  0.00    +0.000 A 
ATOM     25  C   UNL     1     -43.954  -3.209 -32.433  0.00  0.00    +0.000 A 
ATOM     26  C   UNL     1     -45.231  -3.603 -31.942  0.00  0.00    +0.000 A 
BRANCH  26  28
ATOM     27  C   UNL     1     -47.091  -3.210 -33.589  0.00  0.00    +0.000 C 
ATOM     28  O   UNL     1     -46.367  -2.914 -32.403  0.00  0.00    +0.000 OA
ENDBRANCH  26  28
BRANCH  25  30
ATOM     29  C   UNL     1     -43.690  -0.791 -33.069  0.00  0.00    +0.000 C 
ATOM     30  O   UNL     1     -43.769  -2.176 -33.370  0.00  0.00    +0.000 OA
ENDBRANCH  25  30
BRANCH  24  32
ATOM     31  C   UNL     1     -40.821  -4.188 -33.434  0.00  0.00    +0.000 C 
ATOM     32  O   UNL     1     -41.549  -3.448 -32.462  0.00  0.00    +0.000 OA
ENDBRANCH  24  32
ENDBRANCH   3  21
TORSDOF 7
ENDMDL
MODEL 2
REMARK VINA RESULT:      -6.4     10.345     14.832
REMARK  Name = ZINC000020530876 ZINC20530876 PubChem-92688294
REMARK  7 active torsions:
REMARK  status: ('A' for Active; 'I' for Inactive)
REMARK    1  A    between atoms: C_2  and  O_23
REMARK    2  A    between atoms: C_5  and  C_9
REMARK    3  A    between atoms: C_7  and  O_24
REMARK    4  A    between atoms: C_11  and  C_14
REMARK    5  A    between atoms: C_17  and  O_29
REMARK    6  A    between atoms: C_18  and  O_28
REMARK    7  A    between atoms: C_19  and  O_27
REMARK                            x       y       z     vdW  Elec       q    Type
REMARK                         _______ _______ _______ _____ _____    ______ ____
ROOT
ATOM      1  C   UNL     1     -44.673 -14.150 -26.081  0.00  0.00    +0.000 C 
ATOM      2  C   UNL     1     -44.833 -16.651 -25.581  0.00  0.00    +0.000 C 
ATOM      3  C   UNL     1     -43.587 -17.759 -23.795  0.00  0.00    +0.000 C 
ATOM      4  C   UNL     1     -43.719 -19.098 -24.534  0.00  0.00    +0.000 C 
ATOM      5  C   UNL     1     -44.939 -19.117 -25.401  0.00  0.00    +0.000 C 
ATOM      6  O   UNL     1     -43.753 -13.961 -25.239  0.00  0.00    +0.000 OA
ATOM      7  O   UNL     1     -45.502 -20.206 -25.676  0.00  0.00    +0.000 OA
ATOM      8  N   UNL     1     -45.203 -15.467 -26.297  0.00  0.00    +0.000 NA
ATOM      9  N   UNL     1     -43.945 -16.606 -24.630  0.00  0.00    +0.000 NA
ATOM     10  N   UNL     1     -45.443 -17.894 -25.935  0.00  0.00    +0.000 NA
ENDROOT
BRANCH   1  14
ATOM     11  C   UNL     1     -46.224 -10.820 -28.294  0.00  0.00    +0.000 A 
ATOM     12  C   UNL     1     -45.233 -11.645 -28.851  0.00  0.00    +0.000 A 
ATOM     13  C   UNL     1     -44.731 -12.732 -28.132  0.00  0.00    +0.000 A 
ATOM     14  C   UNL     1     -45.209 -13.011 -26.847  0.00  0.00    +0.000 A 
ATOM     15  C   UNL     1     -46.197 -12.189 -26.292  0.00  0.00    +0.000 A 
ATOM     16  C   UNL     1     -46.708 -11.094 -27.006  0.00  0.00    +0.000 A 
BRANCH  11  18
ATOM     17  C   UNL     1     -47.383  -9.858 -30.259  0.00  0.00    +0.000 C 
ATOM     18  O   UNL     1     -46.738  -9.727 -29.000  0.00  0.00    +0.000 OA
ENDBRANCH  11  18
BRANCH  16  20
ATOM     19  C   UNL     1     -47.389  -9.151 -25.631  0.00  0.00    +0.000 C 
ATOM     20  O   UNL     1     -47.694 -10.267 -26.456  0.00  0.00    +0.000 OA
ENDBRANCH  16  20
ENDBRANCH   1  14
BRANCH   3  21
ATOM     21  C   UNL     1     -44.345 -17.741 -22.494  0.00  0.00    +0.000 A 
ATOM     22  C   UNL     1     -45.127 -16.617 -22.205  0.00  0.00    +0.000 A 
ATOM     23  C   UNL     1     -45.883 -16.555 -21.042  0.00  0.00    +0.000 A 
ATOM     24  C   UNL     1     -45.881 -17.620 -20.140  0.00  0.00    +0.000 A 
ATOM     25  C   UNL     1     -45.104 -18.761 -20.397  0.00  0.00    +0.000 A 
ATOM     26  C   UNL     1     -44.306 -18.826 -21.575  0.00  0.00    +0.000 A 
BRANCH  26  28
ATOM     27  C   UNL     1     -42.178 -20.149 -21.358  0.00  0.00    +0.000 C 
ATOM     28  O   UNL     1     -43.520 -19.973 -21.788  0.00  0.00    +0.000 OA
ENDBRANCH  26  28
BRANCH  25  30
ATOM     29  C   UNL     1     -44.293 -19.936 -18.328  0.00  0.00    +0.000 C 
ATOM     30  O   UNL     1     -45.161 -19.792 -19.442  0.00  0.00    +0.000 OA
ENDBRANCH  25  30
BRANCH  24  32
ATOM     31  C   UNL     1     -47.248 -16.373 -18.491  0.00  0.00    +0.000 C 
ATOM     32  O   UNL     1     -46.651 -17.571 -18.972  0.00  0.00    +0.000 OA
ENDBRANCH  24  32
ENDBRANCH   3  21
TORSDOF 7
ENDMDL
MODEL 3
REMARK VINA RESULT:      -6.2      3.943      5.464
REMARK  Name = ZINC000020530876 ZINC20530876 PubChem-92688294
REMARK  7 active torsions:
REMARK  status: ('A' for Active; 'I' for Inactive)
REMARK    1  A    between atoms: C_2  and  O_23
REMARK    2  A    between atoms: C_5  and  C_9
REMARK    3  A    between atoms: C_7  and  O_24
REMARK    4  A    between atoms: C_11  and  C_14
REMARK    5  A    between atoms: C_17  and  O_29
REMARK    6  A    between atoms: C_18  and  O_28
REMARK    7  A    between atoms: C_19  and  O_27
REMARK                            x       y       z     vdW  Elec       q    Type
REMARK                         _______ _______ _______ _____ _____    ______ ____
ROOT
ATOM      1  C   UNL     1     -46.443  -7.043 -29.095  0.00  0.00    +0.000 C 
ATOM      2  C   UNL     1     -46.510  -5.867 -31.362  0.00  0.00    +0.000 C 
ATOM      3  C   UNL     1     -45.839  -3.542 -31.704  0.00  0.00    +0.000 C 
ATOM      4  C   UNL     1     -46.708  -3.477 -32.968  0.00  0.00    +0.000 C 
ATOM      5  C   UNL     1     -46.868  -4.833 -33.582  0.00  0.00    +0.000 C 
ATOM      6  O   UNL     1     -46.122  -5.994 -28.472  0.00  0.00    +0.000 OA
ATOM      7  O   UNL     1     -47.081  -4.947 -34.816  0.00  0.00    +0.000 OA
ATOM      8  N   UNL     1     -46.674  -7.008 -30.512  0.00  0.00    +0.000 NA
ATOM      9  N   UNL     1     -46.116  -4.724 -30.879  0.00  0.00    +0.000 NA
ATOM     10  N   UNL     1     -46.803  -5.993 -32.755  0.00  0.00    +0.000 NA
ENDROOT
BRANCH   1  14
ATOM     11  C   UNL     1     -46.862 -10.740 -26.962  0.00  0.00    +0.000 A 
ATOM     12  C   UNL     1     -46.635 -10.740 -28.348  0.00  0.00    +0.000 A 
ATOM     13  C   UNL     1     -46.495  -9.537 -29.042  0.00  0.00    +0.000 A 
ATOM     14  C   UNL     1     -46.579  -8.315 -28.364  0.00  0.00    +0.000 A 
ATOM     15  C   UNL     1     -46.805  -8.315 -26.982  0.00  0.00    +0.000 A 
ATOM     16  C   UNL     1     -46.948  -9.519 -26.275  0.00  0.00    +0.000 A 
BRANCH  11  18
ATOM     17  C   UNL     1     -46.173 -13.066 -26.470  0.00  0.00    +0.000 C 
ATOM     18  O   UNL     1     -47.006 -11.937 -26.251  0.00  0.00    +0.000 OA
ENDBRANCH  11  18
BRANCH  16  20
ATOM     19  C   UNL     1     -46.366  -8.805 -23.977  0.00  0.00    +0.000 C 
ATOM     20  O   UNL     1     -47.176  -9.526 -24.894  0.00  0.00    +0.000 OA
ENDBRANCH  16  20
ENDBRANCH   1  14
BRANCH   3  21
ATOM     21  C   UNL     1     -44.369  -3.427 -32.008  0.00  0.00    +0.000 A 
ATOM     22  C   UNL     1     -43.585  -4.582 -31.909  0.00  0.00    +0.000 A 
ATOM     23  C   UNL     1     -42.231  -4.553 -32.216  0.00  0.00    +0.000 A 
ATOM     24  C   UNL     1     -41.627  -3.367 -32.638  0.00  0.00    +0.000 A 
ATOM     25  C   UNL     1     -42.384  -2.189 -32.745  0.00  0.00    +0.000 A 
ATOM     26  C   UNL     1     -43.768  -2.201 -32.409  0.00  0.00    +0.000 A 
BRANCH  26  28
ATOM     27  C   UNL     1     -44.731  -0.091 -31.437  0.00  0.00    +0.000 C 
ATOM     28  O   UNL     1     -44.489  -0.997 -32.503  0.00  0.00    +0.000 OA
ENDBRANCH  26  28
BRANCH  25  30
ATOM     29  C   UNL     1     -41.043  -0.101 -32.345  0.00  0.00    +0.000 C 
ATOM     30  O   UNL     1     -41.703  -1.039 -33.182  0.00  0.00    +0.000 OA
ENDBRANCH  25  30
BRANCH  24  32
ATOM     31  C   UNL     1     -39.698  -4.133 -33.992  0.00  0.00    +0.000 C 
ATOM     32  O   UNL     1     -40.266  -3.332 -32.963  0.00  0.00    +0.000 OA
ENDBRANCH  24  32
ENDBRANCH   3  21
TORSDOF 7
ENDMDL
