MODEL 1
REMARK VINA RESULT:      -5.8      0.000      0.000
REMARK  Name = ZINC000065211338 ZINC65211338 ChemDiv-P103-1195 MolPort-010-919-102 PubChem-53160942
REMARK  7 active torsions:
REMARK  status: ('A' for Active; 'I' for Inactive)
REMARK    1  A    between atoms: C_2  and  C_3
REMARK    2  A    between atoms: C_4  and  C_5
REMARK    3  A    between atoms: C_6  and  S_25
REMARK    4  A    between atoms: C_7  and  C_8
REMARK    5  A    between atoms: C_7  and  S_25
REMARK    6  A    between atoms: C_9  and  C_10
REMARK    7  A    between atoms: C_9  and  N_20
REMARK                            x       y       z     vdW  Elec       q    Type
REMARK                         _______ _______ _______ _____ _____    ______ ____
ROOT
ATOM      1  C   UNL     1     -42.103 -20.099 -17.876  0.00  0.00    +0.000 A 
ATOM      2  C   UNL     1     -41.056 -20.903 -18.398  0.00  0.00    +0.000 A 
ATOM      3  C   UNL     1     -39.488 -19.877 -16.925  0.00  0.00    +0.000 A 
ATOM      4  C   UNL     1     -40.481 -19.066 -16.386  0.00  0.00    +0.000 A 
ATOM      5  C   UNL     1     -41.785 -19.182 -16.864  0.00  0.00    +0.000 A 
ATOM      6  N   UNL     1     -39.795 -20.765 -17.906  0.00  0.00    +0.000 NA
ENDROOT
BRANCH   1   8
ATOM      7  C   UNL     1     -45.382 -19.621 -19.098  0.00  0.00    +0.000 A 
ATOM      8  C   UNL     1     -43.515 -20.160 -18.329  0.00  0.00    +0.000 A 
ATOM      9  N   UNL     1     -44.170 -19.094 -18.844  0.00  0.00    +0.000 NA
ATOM     10  N   UNL     1     -44.296 -21.259 -18.282  0.00  0.00    +0.000 NA
ATOM     11  O   UNL     1     -45.440 -20.885 -18.767  0.00  0.00    +0.000 OA
BRANCH   7  13
ATOM     12  C   UNL     1     -46.123 -17.395 -19.843  0.00  0.00    +0.000 C 
ATOM     13  C   UNL     1     -46.510 -18.852 -19.693  0.00  0.00    +0.000 C 
ENDBRANCH   7  13
ENDBRANCH   1   8
BRANCH   2  14
ATOM     14  S   UNL     1     -41.305 -22.118 -19.695  0.00  0.00    +0.000 S 
BRANCH  14  15
ATOM     15  C   UNL     1     -40.805 -20.949 -20.993  0.00  0.00    +0.000 C 
BRANCH  15  16
ATOM     16  C   UNL     1     -41.529 -21.251 -22.257  0.00  0.00    +0.000 C 
ATOM     17  N   UNL     1     -41.639 -20.252 -23.272  0.00  0.00    +0.000 NA
ATOM     18  O   UNL     1     -42.052 -22.387 -22.417  0.00  0.00    +0.000 OA
BRANCH  17  19
ATOM     19  C   UNL     1     -42.335 -20.500 -24.524  0.00  0.00    +0.000 C 
BRANCH  19  20
ATOM     20  C   UNL     1     -43.683 -19.869 -24.481  0.00  0.00    +0.000 A 
ATOM     21  C   UNL     1     -44.093 -19.156 -23.352  0.00  0.00    +0.000 A 
ATOM     22  C   UNL     1     -45.368 -18.590 -23.315  0.00  0.00    +0.000 A 
ATOM     23  C   UNL     1     -46.218 -18.750 -24.412  0.00  0.00    +0.000 A 
ATOM     24  C   UNL     1     -44.564 -20.014 -25.555  0.00  0.00    +0.000 A 
ATOM     25  N   UNL     1     -45.803 -19.454 -25.500  0.00  0.00    +0.000 NA
ENDBRANCH  19  20
ENDBRANCH  17  19
ENDBRANCH  15  16
ENDBRANCH  14  15
ENDBRANCH   2  14
TORSDOF 7
ENDMDL
MODEL 2
REMARK VINA RESULT:      -5.7      4.077      6.278
REMARK  Name = ZINC000065211338 ZINC65211338 ChemDiv-P103-1195 MolPort-010-919-102 PubChem-53160942
REMARK  7 active torsions:
REMARK  status: ('A' for Active; 'I' for Inactive)
REMARK    1  A    between atoms: C_2  and  C_3
REMARK    2  A    between atoms: C_4  and  C_5
REMARK    3  A    between atoms: C_6  and  S_25
REMARK    4  A    between atoms: C_7  and  C_8
REMARK    5  A    between atoms: C_7  and  S_25
REMARK    6  A    between atoms: C_9  and  C_10
REMARK    7  A    between atoms: C_9  and  N_20
REMARK                            x       y       z     vdW  Elec       q    Type
REMARK                         _______ _______ _______ _____ _____    ______ ____
ROOT
ATOM      1  C   UNL     1     -45.453 -17.313 -20.414  0.00  0.00    +0.000 A 
ATOM      2  C   UNL     1     -45.121 -15.933 -20.453  0.00  0.00    +0.000 A 
ATOM      3  C   UNL     1     -46.799 -15.450 -18.831  0.00  0.00    +0.000 A 
ATOM      4  C   UNL     1     -47.160 -16.791 -18.762  0.00  0.00    +0.000 A 
ATOM      5  C   UNL     1     -46.485 -17.717 -19.554  0.00  0.00    +0.000 A 
ATOM      6  N   UNL     1     -45.801 -15.057 -19.664  0.00  0.00    +0.000 NA
ENDROOT
BRANCH   1   8
ATOM      7  C   UNL     1     -44.191 -19.554 -22.834  0.00  0.00    +0.000 A 
ATOM      8  C   UNL     1     -44.784 -18.361 -21.224  0.00  0.00    +0.000 A 
ATOM      9  N   UNL     1     -44.983 -18.504 -22.554  0.00  0.00    +0.000 NA
ATOM     10  N   UNL     1     -43.919 -19.277 -20.742  0.00  0.00    +0.000 NA
ATOM     11  O   UNL     1     -43.574 -19.994 -21.767  0.00  0.00    +0.000 OA
BRANCH   7  13
ATOM     12  C   UNL     1     -45.179 -19.691 -25.084  0.00  0.00    +0.000 C 
ATOM     13  C   UNL     1     -44.033 -20.133 -24.196  0.00  0.00    +0.000 C 
ENDBRANCH   7  13
ENDBRANCH   1   8
BRANCH   2  14
ATOM     14  S   UNL     1     -43.829 -15.264 -21.502  0.00  0.00    +0.000 S 
BRANCH  14  15
ATOM     15  C   UNL     1     -44.837 -13.821 -21.956  0.00  0.00    +0.000 C 
BRANCH  15  16
ATOM     16  C   UNL     1     -45.563 -14.086 -23.227  0.00  0.00    +0.000 C 
ATOM     17  N   UNL     1     -45.467 -15.367 -23.849  0.00  0.00    +0.000 NA
ATOM     18  O   UNL     1     -46.250 -13.169 -23.752  0.00  0.00    +0.000 OA
BRANCH  17  19
ATOM     19  C   UNL     1     -46.157 -15.675 -25.091  0.00  0.00    +0.000 C 
BRANCH  19  20
ATOM     20  C   UNL     1     -45.226 -15.502 -26.239  0.00  0.00    +0.000 A 
ATOM     21  C   UNL     1     -45.440 -14.486 -27.174  0.00  0.00    +0.000 A 
ATOM     22  C   UNL     1     -44.574 -14.349 -28.259  0.00  0.00    +0.000 A 
ATOM     23  C   UNL     1     -43.504 -15.238 -28.395  0.00  0.00    +0.000 A 
ATOM     24  C   UNL     1     -44.150 -16.375 -26.413  0.00  0.00    +0.000 A 
ATOM     25  N   UNL     1     -43.316 -16.225 -27.478  0.00  0.00    +0.000 NA
ENDBRANCH  19  20
ENDBRANCH  17  19
ENDBRANCH  15  16
ENDBRANCH  14  15
ENDBRANCH   2  14
TORSDOF 7
ENDMDL
MODEL 3
REMARK VINA RESULT:      -5.7     15.690     18.566
REMARK  Name = ZINC000065211338 ZINC65211338 ChemDiv-P103-1195 MolPort-010-919-102 PubChem-53160942
REMARK  7 active torsions:
REMARK  status: ('A' for Active; 'I' for Inactive)
REMARK    1  A    between atoms: C_2  and  C_3
REMARK    2  A    between atoms: C_4  and  C_5
REMARK    3  A    between atoms: C_6  and  S_25
REMARK    4  A    between atoms: C_7  and  C_8
REMARK    5  A    between atoms: C_7  and  S_25
REMARK    6  A    between atoms: C_9  and  C_10
REMARK    7  A    between atoms: C_9  and  N_20
REMARK                            x       y       z     vdW  Elec       q    Type
REMARK                         _______ _______ _______ _____ _____    ______ ____
ROOT
ATOM      1  C   UNL     1     -45.800  -3.122 -31.505  0.00  0.00    +0.000 A 
ATOM      2  C   UNL     1     -46.102  -3.209 -32.889  0.00  0.00    +0.000 A 
ATOM      3  C   UNL     1     -44.602  -1.419 -33.363  0.00  0.00    +0.000 A 
ATOM      4  C   UNL     1     -44.278  -1.294 -32.016  0.00  0.00    +0.000 A 
ATOM      5  C   UNL     1     -44.879  -2.148 -31.093  0.00  0.00    +0.000 A 
ATOM      6  N   UNL     1     -45.495  -2.361 -33.763  0.00  0.00    +0.000 NA
ENDROOT
BRANCH   1   8
ATOM      7  C   UNL     1     -46.654  -5.503 -29.041  0.00  0.00    +0.000 A 
ATOM      8  C   UNL     1     -46.395  -3.990 -30.459  0.00  0.00    +0.000 A 
ATOM      9  N   UNL     1     -45.737  -5.035 -29.906  0.00  0.00    +0.000 NA
ATOM     10  N   UNL     1     -47.636  -3.847 -29.948  0.00  0.00    +0.000 NA
ATOM     11  O   UNL     1     -47.756  -4.799 -29.074  0.00  0.00    +0.000 OA
BRANCH   7  13
ATOM     12  C   UNL     1     -45.407  -6.329 -27.086  0.00  0.00    +0.000 C 
ATOM     13  C   UNL     1     -46.430  -6.675 -28.150  0.00  0.00    +0.000 C 
ENDBRANCH   7  13
ENDBRANCH   1   8
BRANCH   2  14
ATOM     14  S   UNL     1     -47.259  -4.400 -33.569  0.00  0.00    +0.000 S 
BRANCH  14  15
ATOM     15  C   UNL     1     -45.926  -5.543 -34.039  0.00  0.00    +0.000 C 
BRANCH  15  16
ATOM     16  C   UNL     1     -46.315  -6.941 -33.712  0.00  0.00    +0.000 C 
ATOM     17  N   UNL     1     -46.787  -7.262 -32.404  0.00  0.00    +0.000 NA
ATOM     18  O   UNL     1     -46.213  -7.836 -34.595  0.00  0.00    +0.000 OA
BRANCH  17  19
ATOM     19  C   UNL     1     -47.179  -8.613 -32.037  0.00  0.00    +0.000 C 
BRANCH  19  20
ATOM     20  C   UNL     1     -46.236  -9.151 -31.019  0.00  0.00    +0.000 A 
ATOM     21  C   UNL     1     -44.981  -8.563 -30.839  0.00  0.00    +0.000 A 
ATOM     22  C   UNL     1     -44.096  -9.091 -29.898  0.00  0.00    +0.000 A 
ATOM     23  C   UNL     1     -44.481 -10.207 -29.150  0.00  0.00    +0.000 A 
ATOM     24  C   UNL     1     -46.581 -10.270 -30.257  0.00  0.00    +0.000 A 
ATOM     25  N   UNL     1     -45.705 -10.769 -29.344  0.00  0.00    +0.000 NA
ENDBRANCH  19  20
ENDBRANCH  17  19
ENDBRANCH  15  16
ENDBRANCH  14  15
ENDBRANCH   2  14
TORSDOF 7
ENDMDL
