MODEL 1
REMARK VINA RESULT:      -6.7      0.000      0.000
REMARK  Name = ZINC000096181850 ZINC96181850 PubChem-97457680
REMARK  3 active torsions:
REMARK  status: ('A' for Active; 'I' for Inactive)
REMARK    1  A    between atoms: C_5  and  N_21
REMARK    2  A    between atoms: C_7  and  C_8
REMARK    3  A    between atoms: C_12  and  C_13
REMARK                            x       y       z     vdW  Elec       q    Type
REMARK                         _______ _______ _______ _____ _____    ______ ____
ROOT
ATOM      1  C   UNL     1     -45.970 -18.116 -20.445  0.00  0.00    +0.000 C 
ATOM      2  C   UNL     1     -46.063 -19.433 -19.676  0.00  0.00    +0.000 C 
ATOM      3  C   UNL     1     -44.920 -19.582 -18.682  0.00  0.00    +0.000 C 
ATOM      4  C   UNL     1     -43.601 -19.362 -19.349  0.00  0.00    +0.000 C 
ATOM      5  C   UNL     1     -44.644 -17.986 -21.214  0.00  0.00    +0.000 C 
ATOM      6  C   UNL     1     -42.160 -17.985 -20.860  0.00  0.00    +0.000 C 
ATOM      7  N   UNL     1     -43.479 -18.432 -20.438  0.00  0.00    +0.000 N 
ATOM      8  O   UNL     1     -42.587 -19.970 -18.914  0.00  0.00    +0.000 OA
ENDROOT
BRANCH   5   9
ATOM      9  C   UNL     1     -44.708 -18.678 -22.542  0.00  0.00    +0.000 A 
ATOM     10  C   UNL     1     -43.789 -19.683 -22.886  0.00  0.00    +0.000 A 
ATOM     11  C   UNL     1     -43.869 -20.313 -24.129  0.00  0.00    +0.000 A 
ATOM     12  C   UNL     1     -44.860 -19.937 -25.039  0.00  0.00    +0.000 A 
ATOM     13  C   UNL     1     -45.767 -18.925 -24.707  0.00  0.00    +0.000 A 
ATOM     14  C   UNL     1     -45.690 -18.298 -23.461  0.00  0.00    +0.000 A 
ATOM     15  F   UNL     1     -44.938 -20.551 -26.242  0.00  0.00    +0.000 F 
ENDBRANCH   5   9
BRANCH   1  16
ATOM     16  C   UNL     1     -46.243 -16.934 -19.566  0.00  0.00    +0.000 C 
ATOM     17  N   UNL     1     -45.416 -15.766 -19.648  0.00  0.00    +0.000 NA
ATOM     18  O   UNL     1     -47.190 -16.998 -18.738  0.00  0.00    +0.000 OA
BRANCH  17  23
ATOM     19  C   UNL     1     -46.799 -11.067 -19.056  0.00  0.00    +0.000 C 
ATOM     20  C   UNL     1     -46.181 -12.310 -18.521  0.00  0.00    +0.000 A 
ATOM     21  C   UNL     1     -45.689 -12.341 -17.215  0.00  0.00    +0.000 A 
ATOM     22  C   UNL     1     -45.114 -13.519 -16.733  0.00  0.00    +0.000 A 
ATOM     23  C   UNL     1     -45.516 -14.610 -18.811  0.00  0.00    +0.000 A 
ATOM     24  C   UNL     1     -46.092 -13.446 -19.328  0.00  0.00    +0.000 A 
ATOM     25  N   UNL     1     -45.037 -14.618 -17.533  0.00  0.00    +0.000 NA
ENDBRANCH  17  23
ENDBRANCH   1  16
TORSDOF 3
ENDMDL
MODEL 2
REMARK VINA RESULT:      -6.4     14.936     17.329
REMARK  Name = ZINC000096181850 ZINC96181850 PubChem-97457680
REMARK  3 active torsions:
REMARK  status: ('A' for Active; 'I' for Inactive)
REMARK    1  A    between atoms: C_5  and  N_21
REMARK    2  A    between atoms: C_7  and  C_8
REMARK    3  A    between atoms: C_12  and  C_13
REMARK                            x       y       z     vdW  Elec       q    Type
REMARK                         _______ _______ _______ _____ _____    ______ ____
ROOT
ATOM      1  C   UNL     1     -45.888  -3.427 -31.178  0.00  0.00    +0.000 C 
ATOM      2  C   UNL     1     -46.919  -3.233 -32.290  0.00  0.00    +0.000 C 
ATOM      3  C   UNL     1     -47.166  -4.525 -33.055  0.00  0.00    +0.000 C 
ATOM      4  C   UNL     1     -45.878  -5.124 -33.521  0.00  0.00    +0.000 C 
ATOM      5  C   UNL     1     -44.540  -3.930 -31.720  0.00  0.00    +0.000 C 
ATOM      6  C   UNL     1     -43.527  -5.820 -33.024  0.00  0.00    +0.000 C 
ATOM      7  N   UNL     1     -44.680  -4.977 -32.741  0.00  0.00    +0.000 N 
ATOM      8  O   UNL     1     -45.867  -5.796 -34.587  0.00  0.00    +0.000 OA
ENDROOT
BRANCH   5   9
ATOM      9  C   UNL     1     -43.689  -2.799 -32.218  0.00  0.00    +0.000 A 
ATOM     10  C   UNL     1     -44.263  -1.648 -32.780  0.00  0.00    +0.000 A 
ATOM     11  C   UNL     1     -43.450  -0.609 -33.236  0.00  0.00    +0.000 A 
ATOM     12  C   UNL     1     -42.061  -0.717 -33.142  0.00  0.00    +0.000 A 
ATOM     13  C   UNL     1     -41.485  -1.870 -32.598  0.00  0.00    +0.000 A 
ATOM     14  C   UNL     1     -42.298  -2.908 -32.137  0.00  0.00    +0.000 A 
ATOM     15  F   UNL     1     -41.275   0.292 -33.581  0.00  0.00    +0.000 F 
ENDBRANCH   5   9
BRANCH   1  16
ATOM     16  C   UNL     1     -46.417  -4.282 -30.069  0.00  0.00    +0.000 C 
ATOM     17  N   UNL     1     -45.600  -5.313 -29.499  0.00  0.00    +0.000 NA
ATOM     18  O   UNL     1     -47.596  -4.098 -29.668  0.00  0.00    +0.000 OA
BRANCH  17  23
ATOM     19  C   UNL     1     -46.170  -6.448 -24.730  0.00  0.00    +0.000 C 
ATOM     20  C   UNL     1     -46.281  -6.812 -26.169  0.00  0.00    +0.000 A 
ATOM     21  C   UNL     1     -46.772  -8.066 -26.537  0.00  0.00    +0.000 A 
ATOM     22  C   UNL     1     -46.869  -8.386 -27.893  0.00  0.00    +0.000 A 
ATOM     23  C   UNL     1     -46.011  -6.250 -28.498  0.00  0.00    +0.000 A 
ATOM     24  C   UNL     1     -45.894  -5.898 -27.151  0.00  0.00    +0.000 A 
ATOM     25  N   UNL     1     -46.489  -7.483 -28.837  0.00  0.00    +0.000 NA
ENDBRANCH  17  23
ENDBRANCH   1  16
TORSDOF 3
ENDMDL
MODEL 3
REMARK VINA RESULT:      -6.2      4.150      8.353
REMARK  Name = ZINC000096181850 ZINC96181850 PubChem-97457680
REMARK  3 active torsions:
REMARK  status: ('A' for Active; 'I' for Inactive)
REMARK    1  A    between atoms: C_5  and  N_21
REMARK    2  A    between atoms: C_7  and  C_8
REMARK    3  A    between atoms: C_12  and  C_13
REMARK                            x       y       z     vdW  Elec       q    Type
REMARK                         _______ _______ _______ _____ _____    ______ ____
ROOT
ATOM      1  C   UNL     1     -45.405 -18.167 -24.235  0.00  0.00    +0.000 C 
ATOM      2  C   UNL     1     -46.221 -17.094 -24.955  0.00  0.00    +0.000 C 
ATOM      3  C   UNL     1     -45.323 -16.062 -25.621  0.00  0.00    +0.000 C 
ATOM      4  C   UNL     1     -44.326 -15.515 -24.650  0.00  0.00    +0.000 C 
ATOM      5  C   UNL     1     -44.481 -17.569 -23.161  0.00  0.00    +0.000 C 
ATOM      6  C   UNL     1     -42.613 -15.919 -22.873  0.00  0.00    +0.000 C 
ATOM      7  N   UNL     1     -43.801 -16.343 -23.599  0.00  0.00    +0.000 N 
ATOM      8  O   UNL     1     -43.921 -14.330 -24.792  0.00  0.00    +0.000 OA
ENDROOT
BRANCH   5   9
ATOM      9  C   UNL     1     -45.208 -17.351 -21.867  0.00  0.00    +0.000 A 
ATOM     10  C   UNL     1     -45.503 -16.059 -21.405  0.00  0.00    +0.000 A 
ATOM     11  C   UNL     1     -46.182 -15.883 -20.198  0.00  0.00    +0.000 A 
ATOM     12  C   UNL     1     -46.561 -16.994 -19.442  0.00  0.00    +0.000 A 
ATOM     13  C   UNL     1     -46.254 -18.283 -19.891  0.00  0.00    +0.000 A 
ATOM     14  C   UNL     1     -45.580 -18.460 -21.101  0.00  0.00    +0.000 A 
ATOM     15  F   UNL     1     -47.221 -16.822 -18.274  0.00  0.00    +0.000 F 
ENDBRANCH   5   9
BRANCH   1  16
ATOM     16  C   UNL     1     -44.671 -19.051 -25.197  0.00  0.00    +0.000 C 
ATOM     17  N   UNL     1     -43.275 -18.844 -25.447  0.00  0.00    +0.000 NA
ATOM     18  O   UNL     1     -45.308 -19.955 -25.798  0.00  0.00    +0.000 OA
BRANCH  17  23
ATOM     19  C   UNL     1     -42.481 -20.235 -30.114  0.00  0.00    +0.000 C 
ATOM     20  C   UNL     1     -42.095 -20.248 -28.678  0.00  0.00    +0.000 A 
ATOM     21  C   UNL     1     -40.972 -20.965 -28.261  0.00  0.00    +0.000 A 
ATOM     22  C   UNL     1     -40.627 -20.963 -26.907  0.00  0.00    +0.000 A 
ATOM     23  C   UNL     1     -42.481 -19.558 -26.399  0.00  0.00    +0.000 A 
ATOM     24  C   UNL     1     -42.858 -19.543 -27.745  0.00  0.00    +0.000 A 
ATOM     25  N   UNL     1     -41.382 -20.269 -26.012  0.00  0.00    +0.000 NA
ENDBRANCH  17  23
ENDBRANCH   1  16
TORSDOF 3
ENDMDL
