MODEL 1
REMARK VINA RESULT:      -6.2      0.000      0.000
REMARK  Name = ZINC000002118541 MCULE-8742096214 MolPort-002-525-345
REMARK  8 active torsions:
REMARK  status: ('A' for Active; 'I' for Inactive)
REMARK    1  A    between atoms: CG_2  and  CB_3
REMARK    2  A    between atoms: CG_2  and  SD_24
REMARK    3  A    between atoms: CB_3  and  CA_4
REMARK    4  A    between atoms: CA_4  and  C_23
REMARK    5  A    between atoms: CA_4  and  N_25
REMARK    6  A    between atoms: C_5  and  C_6
REMARK    7  A    between atoms: C_6  and  C_7
REMARK    8  A    between atoms: C_15  and  C_16
REMARK                            x       y       z     vdW  Elec       q    Type
REMARK                         _______ _______ _______ _____ _____    ______ ____
ROOT
ATOM      1  C   UNK A   0     -46.946  -5.344 -27.819  0.00  0.00    +0.000 A 
ATOM      2  C   UNK A   0     -46.802  -5.530 -26.431  0.00  0.00    +0.000 A 
ATOM      3  C   UNK A   0     -46.438  -6.875 -25.879  0.00  0.00    +0.000 C 
ATOM      4  C   UNK A   0     -47.003  -4.437 -25.573  0.00  0.00    +0.000 A 
ATOM      5  C   UNK A   0     -46.875  -4.561 -24.174  0.00  0.00    +0.000 A 
ATOM      6  C   UNK A   0     -47.091  -3.425 -23.398  0.00  0.00    +0.000 A 
ATOM      7  C   UNK A   0     -47.417  -2.220 -23.951  0.00  0.00    +0.000 A 
ATOM      8  C   UNK A   0     -47.352  -1.879 -21.843  0.00  0.00    +0.000 A 
ATOM      9  C   UNK A   0     -47.043  -3.229 -22.033  0.00  0.00    +0.000 A 
ATOM     10  C   UNK A   0     -47.552  -2.053 -25.327  0.00  0.00    +0.000 A 
ATOM     11  C   UNK A   0     -47.343  -3.176 -26.147  0.00  0.00    +0.000 A 
ATOM     12  C   UNK A   0     -47.285  -4.068 -28.302  0.00  0.00    +0.000 A 
ATOM     13  O   UNK A   0     -47.568  -1.312 -23.020  0.00  0.00    +0.000 OA
ATOM     14  O   UNK A   0     -47.465  -3.053 -27.463  0.00  0.00    +0.000 OA
ATOM     15  O   UNK A   0     -47.420  -3.872 -29.539  0.00  0.00    +0.000 OA
ENDROOT
BRANCH   9  16
ATOM     16  C   UNK A   0     -46.727  -4.254 -20.969  0.00  0.00    +0.000 C 
ATOM     17  C   UNK A   0     -45.364  -4.867 -21.235  0.00  0.00    +0.000 C 
ATOM     18  C   UNK A   0     -47.756  -5.371 -20.948  0.00  0.00    +0.000 C 
ATOM     19  C   UNK A   0     -46.713  -3.594 -19.603  0.00  0.00    +0.000 C 
ENDBRANCH   9  16
BRANCH   1  20
ATOM     20  C   UNK A   0     -46.773  -6.492 -28.772  0.00  0.00    +0.000 C 
BRANCH  20  21
ATOM     21  C   UNK A   0     -45.418  -6.454 -29.392  0.00  0.00    +0.000 C 
ATOM     22  N   MET A   1     -45.260  -5.951 -30.719  0.00  0.00    +0.000 NA
ATOM     23  O   UNK A   0     -44.419  -6.845 -28.731  0.00  0.00    +0.000 OA
BRANCH  22  24
ATOM     24  CA  MET A   1     -43.957  -5.853 -31.358  0.00  0.00    +0.000 C 
BRANCH  24  25
ATOM     25  C   MET A   1     -43.593  -4.417 -31.542  0.00  0.00    +0.000 C 
ATOM     26  O   MET A   1     -44.578  -3.444 -31.456  0.00  0.00    +0.000 OA
ATOM     27  OXT MET A   1     -42.402  -4.084 -31.784  0.00  0.00    +0.000 OA
ENDBRANCH  24  25
BRANCH  24  28
ATOM     28  CB  MET A   1     -43.966  -6.575 -32.699  0.00  0.00    +0.000 C 
BRANCH  28  29
ATOM     29  CG  MET A   1     -45.367  -7.036 -33.062  0.00  0.00    +0.000 C 
BRANCH  29  31
ATOM     30  CE  MET A   1     -46.784  -5.030 -33.954  0.00  0.00    +0.000 C 
ATOM     31  SD  MET A   1     -45.843  -6.393 -34.694  0.00  0.00    +0.000 S 
ENDBRANCH  29  31
ENDBRANCH  28  29
ENDBRANCH  24  28
ENDBRANCH  22  24
ENDBRANCH  20  21
ENDBRANCH   1  20
TORSDOF 8
ENDMDL
MODEL 2
REMARK VINA RESULT:      -5.8      7.115     10.298
REMARK  Name = ZINC000002118541 MCULE-8742096214 MolPort-002-525-345
REMARK  8 active torsions:
REMARK  status: ('A' for Active; 'I' for Inactive)
REMARK    1  A    between atoms: CG_2  and  CB_3
REMARK    2  A    between atoms: CG_2  and  SD_24
REMARK    3  A    between atoms: CB_3  and  CA_4
REMARK    4  A    between atoms: CA_4  and  C_23
REMARK    5  A    between atoms: CA_4  and  N_25
REMARK    6  A    between atoms: C_5  and  C_6
REMARK    7  A    between atoms: C_6  and  C_7
REMARK    8  A    between atoms: C_15  and  C_16
REMARK                            x       y       z     vdW  Elec       q    Type
REMARK                         _______ _______ _______ _____ _____    ______ ____
ROOT
ATOM      1  C   UNK A   0     -44.978  -9.477 -34.521  0.00  0.00    +0.000 A 
ATOM      2  C   UNK A   0     -45.357  -8.246 -33.954  0.00  0.00    +0.000 A 
ATOM      3  C   UNK A   0     -46.638  -8.127 -33.185  0.00  0.00    +0.000 C 
ATOM      4  C   UNK A   0     -44.515  -7.134 -34.117  0.00  0.00    +0.000 A 
ATOM      5  C   UNK A   0     -44.842  -5.874 -33.573  0.00  0.00    +0.000 A 
ATOM      6  C   UNK A   0     -43.949  -4.825 -33.783  0.00  0.00    +0.000 A 
ATOM      7  C   UNK A   0     -42.791  -4.988 -34.488  0.00  0.00    +0.000 A 
ATOM      8  C   UNK A   0     -42.812  -2.936 -33.895  0.00  0.00    +0.000 A 
ATOM      9  C   UNK A   0     -43.985  -3.503 -33.389  0.00  0.00    +0.000 A 
ATOM     10  C   UNK A   0     -42.431  -6.214 -35.040  0.00  0.00    +0.000 A 
ATOM     11  C   UNK A   0     -43.304  -7.300 -34.853  0.00  0.00    +0.000 A 
ATOM     12  C   UNK A   0     -43.768  -9.554 -35.233  0.00  0.00    +0.000 A 
ATOM     13  O   UNK A   0     -42.126  -3.861 -34.547  0.00  0.00    +0.000 OA
ATOM     14  O   UNK A   0     -42.992  -8.483 -35.366  0.00  0.00    +0.000 OA
ATOM     15  O   UNK A   0     -43.404 -10.643 -35.752  0.00  0.00    +0.000 OA
ENDROOT
BRANCH   9  16
ATOM     16  C   UNK A   0     -45.062  -2.815 -32.583  0.00  0.00    +0.000 C 
ATOM     17  C   UNK A   0     -46.347  -2.757 -33.388  0.00  0.00    +0.000 C 
ATOM     18  C   UNK A   0     -44.663  -1.395 -32.217  0.00  0.00    +0.000 C 
ATOM     19  C   UNK A   0     -45.317  -3.584 -31.300  0.00  0.00    +0.000 C 
ENDBRANCH   9  16
BRANCH   1  20
ATOM     20  C   UNK A   0     -45.862 -10.686 -34.400  0.00  0.00    +0.000 C 
BRANCH  20  21
ATOM     21  C   UNK A   0     -46.589 -10.928 -35.678  0.00  0.00    +0.000 C 
ATOM     22  N   MET A   1     -46.354 -12.133 -36.409  0.00  0.00    +0.000 NA
ATOM     23  O   UNK A   0     -47.424 -10.080 -36.092  0.00  0.00    +0.000 OA
BRANCH  22  24
ATOM     24  CA  MET A   1     -47.065 -12.440 -37.640  0.00  0.00    +0.000 C 
BRANCH  24  25
ATOM     25  C   MET A   1     -47.089 -13.917 -37.853  0.00  0.00    +0.000 C 
ATOM     26  O   MET A   1     -46.743 -14.438 -39.092  0.00  0.00    +0.000 OA
ATOM     27  OXT MET A   1     -47.428 -14.693 -36.920  0.00  0.00    +0.000 OA
ENDBRANCH  24  25
BRANCH  24  28
ATOM     28  CB  MET A   1     -46.406 -11.745 -38.824  0.00  0.00    +0.000 C 
BRANCH  28  29
ATOM     29  CG  MET A   1     -47.413 -10.913 -39.600  0.00  0.00    +0.000 C 
BRANCH  29  31
ATOM     30  CE  MET A   1     -45.272  -9.546 -38.986  0.00  0.00    +0.000 C 
ATOM     31  SD  MET A   1     -46.947  -9.157 -39.564  0.00  0.00    +0.000 S 
ENDBRANCH  29  31
ENDBRANCH  28  29
ENDBRANCH  24  28
ENDBRANCH  22  24
ENDBRANCH  20  21
ENDBRANCH   1  20
TORSDOF 8
ENDMDL
MODEL 3
REMARK VINA RESULT:      -5.8      1.532      2.084
REMARK  Name = ZINC000002118541 MCULE-8742096214 MolPort-002-525-345
REMARK  8 active torsions:
REMARK  status: ('A' for Active; 'I' for Inactive)
REMARK    1  A    between atoms: CG_2  and  CB_3
REMARK    2  A    between atoms: CG_2  and  SD_24
REMARK    3  A    between atoms: CB_3  and  CA_4
REMARK    4  A    between atoms: CA_4  and  C_23
REMARK    5  A    between atoms: CA_4  and  N_25
REMARK    6  A    between atoms: C_5  and  C_6
REMARK    7  A    between atoms: C_6  and  C_7
REMARK    8  A    between atoms: C_15  and  C_16
REMARK                            x       y       z     vdW  Elec       q    Type
REMARK                         _______ _______ _______ _____ _____    ______ ____
ROOT
ATOM      1  C   UNK A   0     -46.787  -5.593 -29.142  0.00  0.00    +0.000 A 
ATOM      2  C   UNK A   0     -46.593  -6.079 -27.836  0.00  0.00    +0.000 A 
ATOM      3  C   UNK A   0     -46.152  -7.494 -27.610  0.00  0.00    +0.000 C 
ATOM      4  C   UNK A   0     -46.817  -5.219 -26.749  0.00  0.00    +0.000 A 
ATOM      5  C   UNK A   0     -46.642  -5.649 -25.417  0.00  0.00    +0.000 A 
ATOM      6  C   UNK A   0     -46.886  -4.729 -24.399  0.00  0.00    +0.000 A 
ATOM      7  C   UNK A   0     -47.283  -3.448 -24.659  0.00  0.00    +0.000 A 
ATOM      8  C   UNK A   0     -47.170  -3.588 -22.531  0.00  0.00    +0.000 A 
ATOM      9  C   UNK A   0     -46.806  -4.843 -23.027  0.00  0.00    +0.000 A 
ATOM     10  C   UNK A   0     -47.467  -2.983 -25.958  0.00  0.00    +0.000 A 
ATOM     11  C   UNK A   0     -47.232  -3.880 -27.016  0.00  0.00    +0.000 A 
ATOM     12  C   UNK A   0     -47.198  -4.260 -29.317  0.00  0.00    +0.000 A 
ATOM     13  O   UNK A   0     -47.447  -2.783 -23.544  0.00  0.00    +0.000 OA
ATOM     14  O   UNK A   0     -47.398  -3.470 -28.267  0.00  0.00    +0.000 OA
ATOM     15  O   UNK A   0     -47.379  -3.797 -30.475  0.00  0.00    +0.000 OA
ENDROOT
BRANCH   9  16
ATOM     16  C   UNK A   0     -46.412  -6.065 -22.229  0.00  0.00    +0.000 C 
ATOM     17  C   UNK A   0     -46.268  -5.698 -20.764  0.00  0.00    +0.000 C 
ATOM     18  C   UNK A   0     -45.090  -6.640 -22.709  0.00  0.00    +0.000 C 
ATOM     19  C   UNK A   0     -47.476  -7.137 -22.368  0.00  0.00    +0.000 C 
ENDBRANCH   9  16
BRANCH   1  20
ATOM     20  C   UNK A   0     -46.591  -6.486 -30.334  0.00  0.00    +0.000 C 
BRANCH  20  21
ATOM     21  C   UNK A   0     -45.316  -6.152 -31.031  0.00  0.00    +0.000 C 
ATOM     22  N   MET A   1     -45.351  -5.648 -32.367  0.00  0.00    +0.000 NA
ATOM     23  O   UNK A   0     -44.219  -6.293 -30.427  0.00  0.00    +0.000 OA
BRANCH  22  24
ATOM     24  CA  MET A   1     -44.142  -5.267 -33.080  0.00  0.00    +0.000 C 
BRANCH  24  25
ATOM     25  C   MET A   1     -44.162  -3.801 -33.358  0.00  0.00    +0.000 C 
ATOM     26  O   MET A   1     -43.046  -3.194 -33.917  0.00  0.00    +0.000 OA
ATOM     27  OXT MET A   1     -45.179  -3.110 -33.082  0.00  0.00    +0.000 OA
ENDBRANCH  24  25
BRANCH  24  28
ATOM     28  CB  MET A   1     -44.022  -6.052 -34.380  0.00  0.00    +0.000 C 
BRANCH  28  29
ATOM     29  CG  MET A   1     -45.316  -6.780 -34.702  0.00  0.00    +0.000 C 
BRANCH  29  31
ATOM     30  CE  MET A   1     -46.518  -8.829 -33.614  0.00  0.00    +0.000 C 
ATOM     31  SD  MET A   1     -45.058  -8.578 -34.659  0.00  0.00    +0.000 S 
ENDBRANCH  29  31
ENDBRANCH  28  29
ENDBRANCH  24  28
ENDBRANCH  22  24
ENDBRANCH  20  21
ENDBRANCH   1  20
TORSDOF 8
ENDMDL
