MODEL 1
REMARK VINA RESULT:      -6.3      0.000      0.000
REMARK  Name = ZINC000012896535 ZINC12896535 CSCC[C@@H](CO)NC(=O)Cc1c(C)c2cc3c(C)coc3cc2oc1=O MCULE-4833014261 MolPort-002-536-305 PubChem-16408420
REMARK  7 active torsions:
REMARK  status: ('A' for Active; 'I' for Inactive)
REMARK    1  A    between atoms: CG_2  and  CB_3
REMARK    2  A    between atoms: CG_2  and  SD_21
REMARK    3  A    between atoms: CB_3  and  CA_4
REMARK    4  A    between atoms: CA_4  and  C_5
REMARK    5  A    between atoms: CA_4  and  N_27
REMARK    6  A    between atoms: C_6  and  C_7
REMARK    7  A    between atoms: C_7  and  C_8
REMARK                            x       y       z     vdW  Elec       q    Type
REMARK                         _______ _______ _______ _____ _____    ______ ____
ROOT
ATOM      1  C   UNK A   0     -47.054  -5.596 -28.397  0.00  0.00    +0.000 A 
ATOM      2  C   UNK A   0     -46.835  -5.798 -27.023  0.00  0.00    +0.000 A 
ATOM      3  C   UNK A   0     -46.416  -7.144 -26.511  0.00  0.00    +0.000 C 
ATOM      4  C   UNK A   0     -47.008  -4.721 -26.138  0.00  0.00    +0.000 A 
ATOM      5  C   UNK A   0     -46.802  -4.864 -24.748  0.00  0.00    +0.000 A 
ATOM      6  C   UNK A   0     -46.998  -3.741 -23.950  0.00  0.00    +0.000 A 
ATOM      7  C   UNK A   0     -47.374  -2.534 -24.464  0.00  0.00    +0.000 A 
ATOM      8  C   UNK A   0     -47.200  -2.223 -22.355  0.00  0.00    +0.000 A 
ATOM      9  C   UNK A   0     -46.882  -3.556 -22.594  0.00  0.00    +0.000 A 
ATOM     10  C   UNK A   0     -46.496  -4.570 -21.575  0.00  0.00    +0.000 C 
ATOM     11  C   UNK A   0     -47.587  -2.351 -25.827  0.00  0.00    +0.000 A 
ATOM     12  C   UNK A   0     -47.401  -3.459 -26.675  0.00  0.00    +0.000 A 
ATOM     13  C   UNK A   0     -47.441  -4.318 -28.843  0.00  0.00    +0.000 A 
ATOM     14  O   UNK A   0     -47.491  -1.643 -23.508  0.00  0.00    +0.000 OA
ATOM     15  O   UNK A   0     -47.596  -3.319 -27.980  0.00  0.00    +0.000 OA
ATOM     16  O   UNK A   0     -47.646  -4.107 -30.067  0.00  0.00    +0.000 OA
ENDROOT
BRANCH   1  17
ATOM     17  C   UNK A   0     -46.907  -6.724 -29.377  0.00  0.00    +0.000 C 
BRANCH  17  18
ATOM     18  C   UNK A   0     -45.899  -6.383 -30.421  0.00  0.00    +0.000 C 
ATOM     19  O   UNK A   0     -46.131  -6.661 -31.628  0.00  0.00    +0.000 OA
ATOM     20  N   MET A   1     -44.662  -5.777 -30.039  0.00  0.00    +0.000 NA
BRANCH  20  21
ATOM     21  CA  MET A   1     -43.627  -5.408 -30.998  0.00  0.00    +0.000 C 
BRANCH  21  22
ATOM     22  C   MET A   1     -42.250  -5.591 -30.382  0.00  0.00    +0.000 C 
ATOM     23  O   MET A   1     -42.370  -5.835 -29.014  0.00  0.00    +0.000 OA
ENDBRANCH  21  22
BRANCH  21  24
ATOM     24  CB  MET A   1     -43.818  -3.974 -31.491  0.00  0.00    +0.000 C 
BRANCH  24  25
ATOM     25  CG  MET A   1     -44.339  -3.921 -32.919  0.00  0.00    +0.000 C 
BRANCH  25  27
ATOM     26  CE  MET A   1     -46.831  -3.706 -33.661  0.00  0.00    +0.000 C 
ATOM     27  SD  MET A   1     -45.543  -2.574 -33.072  0.00  0.00    +0.000 S 
ENDBRANCH  25  27
ENDBRANCH  24  25
ENDBRANCH  21  24
ENDBRANCH  20  21
ENDBRANCH  17  18
ENDBRANCH   1  17
TORSDOF 7
ENDMDL
MODEL 2
REMARK VINA RESULT:      -5.8     12.908     15.538
REMARK  Name = ZINC000012896535 ZINC12896535 CSCC[C@@H](CO)NC(=O)Cc1c(C)c2cc3c(C)coc3cc2oc1=O MCULE-4833014261 MolPort-002-536-305 PubChem-16408420
REMARK  7 active torsions:
REMARK  status: ('A' for Active; 'I' for Inactive)
REMARK    1  A    between atoms: CG_2  and  CB_3
REMARK    2  A    between atoms: CG_2  and  SD_21
REMARK    3  A    between atoms: CB_3  and  CA_4
REMARK    4  A    between atoms: CA_4  and  C_5
REMARK    5  A    between atoms: CA_4  and  N_27
REMARK    6  A    between atoms: C_6  and  C_7
REMARK    7  A    between atoms: C_7  and  C_8
REMARK                            x       y       z     vdW  Elec       q    Type
REMARK                         _______ _______ _______ _____ _____    ______ ____
ROOT
ATOM      1  C   UNK A   0     -44.550 -18.913 -24.308  0.00  0.00    +0.000 A 
ATOM      2  C   UNK A   0     -44.381 -18.205 -25.512  0.00  0.00    +0.000 A 
ATOM      3  C   UNK A   0     -43.658 -18.833 -26.666  0.00  0.00    +0.000 C 
ATOM      4  C   UNK A   0     -44.904 -16.907 -25.619  0.00  0.00    +0.000 A 
ATOM      5  C   UNK A   0     -44.766 -16.148 -26.802  0.00  0.00    +0.000 A 
ATOM      6  C   UNK A   0     -45.317 -14.870 -26.816  0.00  0.00    +0.000 A 
ATOM      7  C   UNK A   0     -45.972 -14.345 -25.741  0.00  0.00    +0.000 A 
ATOM      8  C   UNK A   0     -46.039 -12.824 -27.244  0.00  0.00    +0.000 A 
ATOM      9  C   UNK A   0     -45.352 -13.904 -27.791  0.00  0.00    +0.000 A 
ATOM     10  C   UNK A   0     -44.774 -13.983 -29.160  0.00  0.00    +0.000 C 
ATOM     11  C   UNK A   0     -46.131 -15.058 -24.556  0.00  0.00    +0.000 A 
ATOM     12  C   UNK A   0     -45.589 -16.356 -24.495  0.00  0.00    +0.000 A 
ATOM     13  C   UNK A   0     -45.237 -18.295 -23.247  0.00  0.00    +0.000 A 
ATOM     14  O   UNK A   0     -46.395 -13.132 -26.007  0.00  0.00    +0.000 OA
ATOM     15  O   UNK A   0     -45.721 -17.064 -23.380  0.00  0.00    +0.000 OA
ATOM     16  O   UNK A   0     -45.403 -18.902 -22.156  0.00  0.00    +0.000 OA
ENDROOT
BRANCH   1  17
ATOM     17  C   UNK A   0     -43.984 -20.294 -24.137  0.00  0.00    +0.000 C 
BRANCH  17  18
ATOM     18  C   UNK A   0     -42.694 -20.242 -23.391  0.00  0.00    +0.000 C 
ATOM     19  O   UNK A   0     -41.651 -19.838 -23.973  0.00  0.00    +0.000 OA
ATOM     20  N   MET A   1     -42.644 -20.686 -22.033  0.00  0.00    +0.000 NA
BRANCH  20  21
ATOM     21  CA  MET A   1     -41.424 -20.663 -21.234  0.00  0.00    +0.000 C 
BRANCH  21  22
ATOM     22  C   MET A   1     -40.990 -22.081 -20.897  0.00  0.00    +0.000 C 
ATOM     23  O   MET A   1     -41.799 -22.597 -19.885  0.00  0.00    +0.000 OA
ENDBRANCH  21  22
BRANCH  21  24
ATOM     24  CB  MET A   1     -41.613 -19.834 -19.963  0.00  0.00    +0.000 C 
BRANCH  24  25
ATOM     25  CG  MET A   1     -42.494 -18.616 -20.197  0.00  0.00    +0.000 C 
BRANCH  25  27
ATOM     26  CE  MET A   1     -43.760 -19.952 -18.348  0.00  0.00    +0.000 C 
ATOM     27  SD  MET A   1     -43.377 -18.209 -18.667  0.00  0.00    +0.000 S 
ENDBRANCH  25  27
ENDBRANCH  24  25
ENDBRANCH  21  24
ENDBRANCH  20  21
ENDBRANCH  17  18
ENDBRANCH   1  17
TORSDOF 7
ENDMDL
MODEL 3
REMARK VINA RESULT:      -5.8      1.885      2.305
REMARK  Name = ZINC000012896535 ZINC12896535 CSCC[C@@H](CO)NC(=O)Cc1c(C)c2cc3c(C)coc3cc2oc1=O MCULE-4833014261 MolPort-002-536-305 PubChem-16408420
REMARK  7 active torsions:
REMARK  status: ('A' for Active; 'I' for Inactive)
REMARK    1  A    between atoms: CG_2  and  CB_3
REMARK    2  A    between atoms: CG_2  and  SD_21
REMARK    3  A    between atoms: CB_3  and  CA_4
REMARK    4  A    between atoms: CA_4  and  C_5
REMARK    5  A    between atoms: CA_4  and  N_27
REMARK    6  A    between atoms: C_6  and  C_7
REMARK    7  A    between atoms: C_7  and  C_8
REMARK                            x       y       z     vdW  Elec       q    Type
REMARK                         _______ _______ _______ _____ _____    ______ ____
ROOT
ATOM      1  C   UNK A   0     -46.964  -5.427 -28.142  0.00  0.00    +0.000 A 
ATOM      2  C   UNK A   0     -46.831  -5.657 -26.761  0.00  0.00    +0.000 A 
ATOM      3  C   UNK A   0     -46.524  -7.032 -26.246  0.00  0.00    +0.000 C 
ATOM      4  C   UNK A   0     -46.982  -4.580 -25.872  0.00  0.00    +0.000 A 
ATOM      5  C   UNK A   0     -46.859  -4.749 -24.475  0.00  0.00    +0.000 A 
ATOM      6  C   UNK A   0     -47.025  -3.624 -23.673  0.00  0.00    +0.000 A 
ATOM      7  C   UNK A   0     -47.297  -2.391 -24.190  0.00  0.00    +0.000 A 
ATOM      8  C   UNK A   0     -47.215  -2.113 -22.071  0.00  0.00    +0.000 A 
ATOM      9  C   UNK A   0     -46.969  -3.461 -22.311  0.00  0.00    +0.000 A 
ATOM     10  C   UNK A   0     -46.701  -4.508 -21.287  0.00  0.00    +0.000 C 
ATOM     11  C   UNK A   0     -47.426  -2.181 -25.560  0.00  0.00    +0.000 A 
ATOM     12  C   UNK A   0     -47.266  -3.290 -26.412  0.00  0.00    +0.000 A 
ATOM     13  C   UNK A   0     -47.247  -4.123 -28.590  0.00  0.00    +0.000 A 
ATOM     14  O   UNK A   0     -47.408  -1.504 -23.230  0.00  0.00    +0.000 OA
ATOM     15  O   UNK A   0     -47.384  -3.125 -27.723  0.00  0.00    +0.000 OA
ATOM     16  O   UNK A   0     -47.373  -3.887 -29.820  0.00  0.00    +0.000 OA
ENDROOT
BRANCH   1  17
ATOM     17  C   UNK A   0     -46.837  -6.553 -29.128  0.00  0.00    +0.000 C 
BRANCH  17  18
ATOM     18  C   UNK A   0     -45.478  -6.560 -29.742  0.00  0.00    +0.000 C 
ATOM     19  O   UNK A   0     -44.484  -6.912 -29.053  0.00  0.00    +0.000 OA
ATOM     20  N   MET A   1     -45.312  -6.133 -31.097  0.00  0.00    +0.000 NA
BRANCH  20  21
ATOM     21  CA  MET A   1     -44.019  -6.116 -31.771  0.00  0.00    +0.000 C 
BRANCH  21  22
ATOM     22  C   MET A   1     -43.592  -4.683 -32.049  0.00  0.00    +0.000 C 
ATOM     23  O   MET A   1     -44.318  -3.806 -31.243  0.00  0.00    +0.000 OA
ENDBRANCH  21  22
BRANCH  21  24
ATOM     24  CB  MET A   1     -44.060  -6.933 -33.062  0.00  0.00    +0.000 C 
BRANCH  24  25
ATOM     25  CG  MET A   1     -44.251  -8.418 -32.797  0.00  0.00    +0.000 C 
BRANCH  25  27
ATOM     26  CE  MET A   1     -46.381  -9.567 -31.820  0.00  0.00    +0.000 C 
ATOM     27  SD  MET A   1     -45.862  -8.943 -33.442  0.00  0.00    +0.000 S 
ENDBRANCH  25  27
ENDBRANCH  24  25
ENDBRANCH  21  24
ENDBRANCH  20  21
ENDBRANCH  17  18
ENDBRANCH   1  17
TORSDOF 7
ENDMDL
