MODEL 1
REMARK VINA RESULT:      -6.9      0.000      0.000
REMARK  Name = ZINC000020135762 ZINC20135762 PubChem-92655563
REMARK  6 active torsions:
REMARK  status: ('A' for Active; 'I' for Inactive)
REMARK    1  A    between atoms: C_2  and  O_22
REMARK    2  A    between atoms: C_5  and  C_8
REMARK    3  A    between atoms: C_12  and  C_13
REMARK    4  A    between atoms: C_15  and  O_27
REMARK    5  A    between atoms: C_16  and  O_26
REMARK    6  A    between atoms: C_17  and  O_25
REMARK                            x       y       z     vdW  Elec       q    Type
REMARK                         _______ _______ _______ _____ _____    ______ ____
ROOT
ATOM      1  C   UNL     1     -47.071  -3.835 -31.863  0.00  0.00    +0.000 C 
ATOM      2  C   UNL     1     -47.031  -5.124 -32.696  0.00  0.00    +0.000 C 
ATOM      3  C   UNL     1     -46.115  -6.132 -32.080  0.00  0.00    +0.000 C 
ATOM      4  C   UNL     1     -46.534  -5.129 -29.858  0.00  0.00    +0.000 C 
ATOM      5  C   UNL     1     -47.073  -4.354 -27.483  0.00  0.00    +0.000 C 
ATOM      6  O   UNL     1     -45.528  -6.979 -32.800  0.00  0.00    +0.000 OA
ATOM      7  O   UNL     1     -47.613  -3.282 -27.873  0.00  0.00    +0.000 OA
ATOM      8  N   UNL     1     -45.935  -6.146 -30.665  0.00  0.00    +0.000 NA
ATOM      9  N   UNL     1     -47.085  -4.089 -30.417  0.00  0.00    +0.000 NA
ATOM     10  N   UNL     1     -46.530  -5.282 -28.434  0.00  0.00    +0.000 NA
ENDROOT
BRANCH   1  14
ATOM     11  C   UNL     1     -43.887  -1.118 -32.888  0.00  0.00    +0.000 A 
ATOM     12  C   UNL     1     -44.350  -2.037 -33.835  0.00  0.00    +0.000 A 
ATOM     13  C   UNL     1     -45.381  -2.924 -33.511  0.00  0.00    +0.000 A 
ATOM     14  C   UNL     1     -45.958  -2.901 -32.233  0.00  0.00    +0.000 A 
ATOM     15  C   UNL     1     -45.498  -1.981 -31.286  0.00  0.00    +0.000 A 
ATOM     16  C   UNL     1     -44.467  -1.094 -31.609  0.00  0.00    +0.000 A 
BRANCH  11  18
ATOM     17  C   UNL     1     -41.511  -0.433 -32.816  0.00  0.00    +0.000 C 
ATOM     18  O   UNL     1     -42.855  -0.246 -33.241  0.00  0.00    +0.000 OA
ENDBRANCH  11  18
ENDBRANCH   1  14
BRANCH   5  19
ATOM     19  C   UNL     1     -46.997  -4.654 -26.043  0.00  0.00    +0.000 A 
ATOM     20  C   UNL     1     -47.369  -3.694 -25.098  0.00  0.00    +0.000 A 
ATOM     21  C   UNL     1     -47.300  -3.971 -23.726  0.00  0.00    +0.000 A 
ATOM     22  C   UNL     1     -46.853  -5.227 -23.282  0.00  0.00    +0.000 A 
ATOM     23  C   UNL     1     -46.474  -6.207 -24.236  0.00  0.00    +0.000 A 
ATOM     24  C   UNL     1     -46.553  -5.902 -25.604  0.00  0.00    +0.000 A 
BRANCH  23  26
ATOM     25  C   UNL     1     -46.639  -8.681 -24.233  0.00  0.00    +0.000 C 
ATOM     26  O   UNL     1     -46.024  -7.467 -23.824  0.00  0.00    +0.000 OA
ENDBRANCH  23  26
BRANCH  22  28
ATOM     27  C   UNL     1     -45.659  -5.264 -21.077  0.00  0.00    +0.000 C 
ATOM     28  O   UNL     1     -46.807  -5.443 -21.895  0.00  0.00    +0.000 OA
ENDBRANCH  22  28
BRANCH  21  30
ATOM     29  C   UNL     1     -47.203  -1.668 -22.817  0.00  0.00    +0.000 C 
ATOM     30  O   UNL     1     -47.672  -3.008 -22.779  0.00  0.00    +0.000 OA
ENDBRANCH  21  30
ENDBRANCH   5  19
TORSDOF 6
ENDMDL
MODEL 2
REMARK VINA RESULT:      -6.6      0.343      2.558
REMARK  Name = ZINC000020135762 ZINC20135762 PubChem-92655563
REMARK  6 active torsions:
REMARK  status: ('A' for Active; 'I' for Inactive)
REMARK    1  A    between atoms: C_2  and  O_22
REMARK    2  A    between atoms: C_5  and  C_8
REMARK    3  A    between atoms: C_12  and  C_13
REMARK    4  A    between atoms: C_15  and  O_27
REMARK    5  A    between atoms: C_16  and  O_26
REMARK    6  A    between atoms: C_17  and  O_25
REMARK                            x       y       z     vdW  Elec       q    Type
REMARK                         _______ _______ _______ _____ _____    ______ ____
ROOT
ATOM      1  C   UNL     1     -46.828  -3.861 -31.716  0.00  0.00    +0.000 C 
ATOM      2  C   UNL     1     -46.727  -5.168 -32.516  0.00  0.00    +0.000 C 
ATOM      3  C   UNL     1     -45.817  -6.141 -31.839  0.00  0.00    +0.000 C 
ATOM      4  C   UNL     1     -46.349  -5.097 -29.661  0.00  0.00    +0.000 C 
ATOM      5  C   UNL     1     -47.002  -4.279 -27.329  0.00  0.00    +0.000 C 
ATOM      6  O   UNL     1     -45.183  -6.992 -32.514  0.00  0.00    +0.000 OA
ATOM      7  O   UNL     1     -47.547  -3.228 -27.767  0.00  0.00    +0.000 OA
ATOM      8  N   UNL     1     -45.696  -6.118 -30.418  0.00  0.00    +0.000 NA
ATOM      9  N   UNL     1     -46.898  -4.082 -30.267  0.00  0.00    +0.000 NA
ATOM     10  N   UNL     1     -46.400  -5.217 -28.234  0.00  0.00    +0.000 NA
ENDROOT
BRANCH   1  14
ATOM     11  C   UNL     1     -43.619  -1.173 -32.740  0.00  0.00    +0.000 A 
ATOM     12  C   UNL     1     -44.457  -0.878 -31.660  0.00  0.00    +0.000 A 
ATOM     13  C   UNL     1     -45.503  -1.742 -31.321  0.00  0.00    +0.000 A 
ATOM     14  C   UNL     1     -45.721  -2.912 -32.063  0.00  0.00    +0.000 A 
ATOM     15  C   UNL     1     -44.882  -3.211 -33.141  0.00  0.00    +0.000 A 
ATOM     16  C   UNL     1     -43.836  -2.347 -33.480  0.00  0.00    +0.000 A 
BRANCH  11  18
ATOM     17  C   UNL     1     -41.225  -0.551 -32.731  0.00  0.00    +0.000 C 
ATOM     18  O   UNL     1     -42.585  -0.289 -33.054  0.00  0.00    +0.000 OA
ENDBRANCH  11  18
ENDBRANCH   1  14
BRANCH   5  19
ATOM     19  C   UNL     1     -46.980  -4.544 -25.881  0.00  0.00    +0.000 A 
ATOM     20  C   UNL     1     -46.567  -5.788 -25.393  0.00  0.00    +0.000 A 
ATOM     21  C   UNL     1     -46.544  -6.048 -24.016  0.00  0.00    +0.000 A 
ATOM     22  C   UNL     1     -46.937  -5.055 -23.104  0.00  0.00    +0.000 A 
ATOM     23  C   UNL     1     -47.356  -3.790 -23.591  0.00  0.00    +0.000 A 
ATOM     24  C   UNL     1     -47.370  -3.556 -24.975  0.00  0.00    +0.000 A 
BRANCH  23  26
ATOM     25  C   UNL     1     -46.874  -1.764 -22.244  0.00  0.00    +0.000 C 
ATOM     26  O   UNL     1     -47.754  -2.780 -22.707  0.00  0.00    +0.000 OA
ENDBRANCH  23  26
BRANCH  22  28
ATOM     27  C   UNL     1     -45.769  -5.178 -20.888  0.00  0.00    +0.000 C 
ATOM     28  O   UNL     1     -46.890  -5.378 -21.737  0.00  0.00    +0.000 OA
ENDBRANCH  22  28
BRANCH  21  30
ATOM     29  C   UNL     1     -46.669  -8.523 -23.997  0.00  0.00    +0.000 C 
ATOM     30  O   UNL     1     -46.131  -7.294 -23.528  0.00  0.00    +0.000 OA
ENDBRANCH  21  30
ENDBRANCH   5  19
TORSDOF 6
ENDMDL
MODEL 3
REMARK VINA RESULT:      -6.6      3.534      4.839
REMARK  Name = ZINC000020135762 ZINC20135762 PubChem-92655563
REMARK  6 active torsions:
REMARK  status: ('A' for Active; 'I' for Inactive)
REMARK    1  A    between atoms: C_2  and  O_22
REMARK    2  A    between atoms: C_5  and  C_8
REMARK    3  A    between atoms: C_12  and  C_13
REMARK    4  A    between atoms: C_15  and  O_27
REMARK    5  A    between atoms: C_16  and  O_26
REMARK    6  A    between atoms: C_17  and  O_25
REMARK                            x       y       z     vdW  Elec       q    Type
REMARK                         _______ _______ _______ _____ _____    ______ ____
ROOT
ATOM      1  C   UNL     1     -46.896  -4.538 -32.943  0.00  0.00    +0.000 C 
ATOM      2  C   UNL     1     -47.057  -4.991 -34.402  0.00  0.00    +0.000 C 
ATOM      3  C   UNL     1     -46.320  -6.266 -34.651  0.00  0.00    +0.000 C 
ATOM      4  C   UNL     1     -46.588  -6.868 -32.267  0.00  0.00    +0.000 C 
ATOM      5  C   UNL     1     -47.012  -7.726 -29.898  0.00  0.00    +0.000 C 
ATOM      6  O   UNL     1     -45.871  -6.526 -35.797  0.00  0.00    +0.000 OA
ATOM      7  O   UNL     1     -47.371  -6.594 -29.470  0.00  0.00    +0.000 OA
ATOM      8  N   UNL     1     -46.154  -7.202 -33.588  0.00  0.00    +0.000 NA
ATOM      9  N   UNL     1     -46.961  -5.652 -31.989  0.00  0.00    +0.000 NA
ATOM     10  N   UNL     1     -46.618  -7.894 -31.268  0.00  0.00    +0.000 NA
ENDROOT
BRANCH   1  14
ATOM     11  C   UNL     1     -43.290  -2.259 -32.337  0.00  0.00    +0.000 A 
ATOM     12  C   UNL     1     -44.323  -1.732 -33.118  0.00  0.00    +0.000 A 
ATOM     13  C   UNL     1     -45.496  -2.465 -33.322  0.00  0.00    +0.000 A 
ATOM     14  C   UNL     1     -45.645  -3.735 -32.748  0.00  0.00    +0.000 A 
ATOM     15  C   UNL     1     -44.614  -4.262 -31.964  0.00  0.00    +0.000 A 
ATOM     16  C   UNL     1     -43.441  -3.530 -31.759  0.00  0.00    +0.000 A 
BRANCH  11  18
ATOM     17  C   UNL     1     -41.784  -0.408 -32.990  0.00  0.00    +0.000 C 
ATOM     18  O   UNL     1     -42.129  -1.503 -32.152  0.00  0.00    +0.000 OA
ENDBRANCH  11  18
ENDBRANCH   1  14
BRANCH   5  19
ATOM     19  C   UNL     1     -46.996  -8.882 -28.985  0.00  0.00    +0.000 A 
ATOM     20  C   UNL     1     -47.174  -8.703 -27.611  0.00  0.00    +0.000 A 
ATOM     21  C   UNL     1     -47.160  -9.798 -26.735  0.00  0.00    +0.000 A 
ATOM     22  C   UNL     1     -46.965 -11.097 -27.234  0.00  0.00    +0.000 A 
ATOM     23  C   UNL     1     -46.783 -11.286 -28.629  0.00  0.00    +0.000 A 
ATOM     24  C   UNL     1     -46.802 -10.172 -29.482  0.00  0.00    +0.000 A 
BRANCH  23  26
ATOM     25  C   UNL     1     -46.018 -12.801 -30.438  0.00  0.00    +0.000 C 
ATOM     26  O   UNL     1     -46.586 -12.568 -29.156  0.00  0.00    +0.000 OA
ENDBRANCH  23  26
BRANCH  22  28
ATOM     27  C   UNL     1     -45.798 -12.741 -25.743  0.00  0.00    +0.000 C 
ATOM     28  O   UNL     1     -46.961 -12.151 -26.306  0.00  0.00    +0.000 OA
ENDBRANCH  22  28
BRANCH  21  30
ATOM     29  C   UNL     1     -46.315  -9.123 -24.506  0.00  0.00    +0.000 C 
ATOM     30  O   UNL     1     -47.339  -9.619 -25.358  0.00  0.00    +0.000 OA
ENDBRANCH  21  30
ENDBRANCH   5  19
TORSDOF 6
ENDMDL
