MODEL 1
REMARK VINA RESULT:      -7.1      0.000      0.000
REMARK  Name = ZINC000072242200 ZINC72242200 PubChem-95740414
REMARK  2 active torsions:
REMARK  status: ('A' for Active; 'I' for Inactive)
REMARK    1  A    between atoms: C_7  and  C_8
REMARK    2  A    between atoms: C_11  and  C_12
REMARK                            x       y       z     vdW  Elec       q    Type
REMARK                         _______ _______ _______ _____ _____    ______ ____
ROOT
ATOM      1  C   UNL     1     -46.831  -5.393 -30.726  0.00  0.00    +0.000 C 
ATOM      2  C   UNL     1     -47.578  -6.617 -31.274  0.00  0.00    +0.000 C 
ATOM      3  C   UNL     1     -46.575  -7.262 -32.142  0.00  0.00    +0.000 C 
ATOM      4  C   UNL     1     -45.383  -5.456 -31.250  0.00  0.00    +0.000 C 
ATOM      5  C   UNL     1     -44.114  -7.124 -32.729  0.00  0.00    +0.000 C 
ATOM      6  N   UNL     1     -45.337  -6.586 -32.159  0.00  0.00    +0.000 N 
ATOM      7  O   UNL     1     -46.792  -8.319 -32.793  0.00  0.00    +0.000 OA
ENDROOT
BRANCH   1  14
ATOM      8  C   UNL     1     -47.756  -1.123 -24.780  0.00  0.00    +0.000 C 
ATOM      9  C   UNL     1     -47.486  -2.498 -25.273  0.00  0.00    +0.000 A 
ATOM     10  C   UNL     1     -47.310  -3.543 -24.365  0.00  0.00    +0.000 A 
ATOM     11  C   UNL     1     -47.057  -4.827 -24.847  0.00  0.00    +0.000 A 
ATOM     12  C   UNL     1     -46.984  -5.051 -26.222  0.00  0.00    +0.000 A 
ATOM     13  C   UNL     1     -47.166  -3.981 -27.108  0.00  0.00    +0.000 A 
ATOM     14  C   UNL     1     -46.852  -5.383 -29.235  0.00  0.00    +0.000 C 
ATOM     15  N   UNL     1     -47.411  -2.737 -26.611  0.00  0.00    +0.000 NA
ATOM     16  N   UNL     1     -47.101  -4.158 -28.529  0.00  0.00    +0.000 NA
ATOM     17  O   UNL     1     -46.649  -6.461 -28.614  0.00  0.00    +0.000 OA
ENDBRANCH   1  14
BRANCH   4  18
ATOM     18  C   UNL     1     -45.008  -4.184 -31.947  0.00  0.00    +0.000 A 
ATOM     19  C   UNL     1     -45.918  -3.598 -32.832  0.00  0.00    +0.000 A 
ATOM     20  C   UNL     1     -45.589  -2.412 -33.496  0.00  0.00    +0.000 A 
ATOM     21  C   UNL     1     -44.347  -1.808 -33.275  0.00  0.00    +0.000 A 
ATOM     22  C   UNL     1     -43.434  -2.389 -32.392  0.00  0.00    +0.000 A 
ATOM     23  C   UNL     1     -43.762  -3.575 -31.728  0.00  0.00    +0.000 A 
ATOM     24  F   UNL     1     -44.030  -0.659 -33.919  0.00  0.00    +0.000 F 
ENDBRANCH   4  18
TORSDOF 2
ENDMDL
MODEL 2
REMARK VINA RESULT:      -6.7      2.476      3.485
REMARK  Name = ZINC000072242200 ZINC72242200 PubChem-95740414
REMARK  2 active torsions:
REMARK  status: ('A' for Active; 'I' for Inactive)
REMARK    1  A    between atoms: C_7  and  C_8
REMARK    2  A    between atoms: C_11  and  C_12
REMARK                            x       y       z     vdW  Elec       q    Type
REMARK                         _______ _______ _______ _____ _____    ______ ____
ROOT
ATOM      1  C   UNL     1     -46.040  -3.707 -31.806  0.00  0.00    +0.000 C 
ATOM      2  C   UNL     1     -47.107  -4.343 -32.708  0.00  0.00    +0.000 C 
ATOM      3  C   UNL     1     -46.308  -5.043 -33.732  0.00  0.00    +0.000 C 
ATOM      4  C   UNL     1     -44.661  -4.162 -32.320  0.00  0.00    +0.000 C 
ATOM      5  C   UNL     1     -43.910  -5.688 -34.241  0.00  0.00    +0.000 C 
ATOM      6  N   UNL     1     -44.917  -4.913 -33.535  0.00  0.00    +0.000 N 
ATOM      7  O   UNL     1     -46.811  -5.704 -34.678  0.00  0.00    +0.000 OA
ENDROOT
BRANCH   1  14
ATOM      8  C   UNL     1     -45.759  -9.407 -27.128  0.00  0.00    +0.000 C 
ATOM      9  C   UNL     1     -46.027  -7.953 -27.276  0.00  0.00    +0.000 A 
ATOM     10  C   UNL     1     -46.389  -7.193 -26.162  0.00  0.00    +0.000 A 
ATOM     11  C   UNL     1     -46.637  -5.830 -26.322  0.00  0.00    +0.000 A 
ATOM     12  C   UNL     1     -46.522  -5.245 -27.583  0.00  0.00    +0.000 A 
ATOM     13  C   UNL     1     -46.158  -6.036 -28.681  0.00  0.00    +0.000 A 
ATOM     14  C   UNL     1     -46.235  -4.117 -30.385  0.00  0.00    +0.000 C 
ATOM     15  N   UNL     1     -45.921  -7.364 -28.499  0.00  0.00    +0.000 NA
ATOM     16  N   UNL     1     -46.025  -5.484 -29.999  0.00  0.00    +0.000 NA
ATOM     17  O   UNL     1     -46.582  -3.248 -29.541  0.00  0.00    +0.000 OA
ENDBRANCH   1  14
BRANCH   4  18
ATOM     18  C   UNL     1     -43.772  -2.986 -32.587  0.00  0.00    +0.000 A 
ATOM     19  C   UNL     1     -42.394  -3.114 -32.386  0.00  0.00    +0.000 A 
ATOM     20  C   UNL     1     -41.544  -2.030 -32.628  0.00  0.00    +0.000 A 
ATOM     21  C   UNL     1     -42.072  -0.813 -33.071  0.00  0.00    +0.000 A 
ATOM     22  C   UNL     1     -43.448  -0.680 -33.274  0.00  0.00    +0.000 A 
ATOM     23  C   UNL     1     -44.298  -1.763 -33.033  0.00  0.00    +0.000 A 
ATOM     24  F   UNL     1     -41.248   0.236 -33.304  0.00  0.00    +0.000 F 
ENDBRANCH   4  18
TORSDOF 2
ENDMDL
MODEL 3
REMARK VINA RESULT:      -6.6      2.335      3.139
REMARK  Name = ZINC000072242200 ZINC72242200 PubChem-95740414
REMARK  2 active torsions:
REMARK  status: ('A' for Active; 'I' for Inactive)
REMARK    1  A    between atoms: C_7  and  C_8
REMARK    2  A    between atoms: C_11  and  C_12
REMARK                            x       y       z     vdW  Elec       q    Type
REMARK                         _______ _______ _______ _____ _____    ______ ____
ROOT
ATOM      1  C   UNL     1     -46.631  -5.722 -28.894  0.00  0.00    +0.000 C 
ATOM      2  C   UNL     1     -46.207  -6.969 -28.106  0.00  0.00    +0.000 C 
ATOM      3  C   UNL     1     -44.900  -7.313 -28.700  0.00  0.00    +0.000 C 
ATOM      4  C   UNL     1     -45.481  -5.359 -29.853  0.00  0.00    +0.000 C 
ATOM      5  C   UNL     1     -43.169  -6.379 -30.299  0.00  0.00    +0.000 C 
ATOM      6  N   UNL     1     -44.501  -6.421 -29.718  0.00  0.00    +0.000 N 
ATOM      7  O   UNL     1     -44.201  -8.292 -28.330  0.00  0.00    +0.000 OA
ENDROOT
BRANCH   1  14
ATOM      8  C   UNL     1     -47.194  -3.762 -21.802  0.00  0.00    +0.000 C 
ATOM      9  C   UNL     1     -47.285  -3.305 -23.213  0.00  0.00    +0.000 A 
ATOM     10  C   UNL     1     -47.597  -1.974 -23.495  0.00  0.00    +0.000 A 
ATOM     11  C   UNL     1     -47.678  -1.563 -24.826  0.00  0.00    +0.000 A 
ATOM     12  C   UNL     1     -47.448  -2.480 -25.852  0.00  0.00    +0.000 A 
ATOM     13  C   UNL     1     -47.137  -3.809 -25.535  0.00  0.00    +0.000 A 
ATOM     14  C   UNL     1     -46.926  -4.587 -27.972  0.00  0.00    +0.000 C 
ATOM     15  N   UNL     1     -47.064  -4.184 -24.228  0.00  0.00    +0.000 NA
ATOM     16  N   UNL     1     -46.892  -4.791 -26.551  0.00  0.00    +0.000 NA
ATOM     17  O   UNL     1     -47.200  -3.459 -28.461  0.00  0.00    +0.000 OA
ENDBRANCH   1  14
BRANCH   4  18
ATOM     18  C   UNL     1     -45.971  -5.251 -31.264  0.00  0.00    +0.000 A 
ATOM     19  C   UNL     1     -46.205  -3.985 -31.809  0.00  0.00    +0.000 A 
ATOM     20  C   UNL     1     -46.664  -3.859 -33.124  0.00  0.00    +0.000 A 
ATOM     21  C   UNL     1     -46.891  -5.001 -33.898  0.00  0.00    +0.000 A 
ATOM     22  C   UNL     1     -46.658  -6.269 -33.359  0.00  0.00    +0.000 A 
ATOM     23  C   UNL     1     -46.199  -6.396 -32.044  0.00  0.00    +0.000 A 
ATOM     24  F   UNL     1     -47.336  -4.878 -35.172  0.00  0.00    +0.000 F 
ENDBRANCH   4  18
TORSDOF 2
ENDMDL
