MODEL 1
REMARK VINA RESULT:      -7.0      0.000      0.000
REMARK  Name = ZINC000072242160 ZINC72242160 PubChem-95740374
REMARK  4 active torsions:
REMARK  status: ('A' for Active; 'I' for Inactive)
REMARK    1  A    between atoms: C_6  and  C_7
REMARK    2  A    between atoms: C_7  and  N_21
REMARK    3  A    between atoms: C_8  and  C_9
REMARK    4  A    between atoms: C_13  and  C_14
REMARK                            x       y       z     vdW  Elec       q    Type
REMARK                         _______ _______ _______ _____ _____    ______ ____
ROOT
ATOM      1  C   UNL     1     -46.026  -5.351 -30.930  0.00  0.00    +0.000 C 
ATOM      2  C   UNL     1     -46.945  -6.391 -31.585  0.00  0.00    +0.000 C 
ATOM      3  C   UNL     1     -46.158  -6.854 -32.745  0.00  0.00    +0.000 C 
ATOM      4  C   UNL     1     -43.833  -6.659 -33.737  0.00  0.00    +0.000 C 
ATOM      5  C   UNL     1     -44.703  -5.332 -31.720  0.00  0.00    +0.000 C 
ATOM      6  N   UNL     1     -44.898  -6.229 -32.844  0.00  0.00    +0.000 N 
ATOM      7  O   UNL     1     -46.559  -7.728 -33.558  0.00  0.00    +0.000 OA
ENDROOT
BRANCH   5   8
ATOM      8  C   UNL     1     -44.376  -3.946 -32.185  0.00  0.00    +0.000 A 
ATOM      9  C   UNL     1     -43.144  -3.347 -31.877  0.00  0.00    +0.000 A 
ATOM     10  C   UNL     1     -42.862  -2.053 -32.323  0.00  0.00    +0.000 A 
ATOM     11  C   UNL     1     -43.808  -1.352 -33.077  0.00  0.00    +0.000 A 
ATOM     12  C   UNL     1     -45.035  -1.946 -33.386  0.00  0.00    +0.000 A 
ATOM     13  C   UNL     1     -45.318  -3.239 -32.941  0.00  0.00    +0.000 A 
ATOM     14  F   UNL     1     -43.534  -0.097 -33.509  0.00  0.00    +0.000 F 
ENDBRANCH   5   8
BRANCH   1  15
ATOM     15  C   UNL     1     -45.779  -5.693 -29.498  0.00  0.00    +0.000 C 
ATOM     16  N   UNL     1     -46.862  -5.715 -28.568  0.00  0.00    +0.000 NA
ATOM     17  O   UNL     1     -44.607  -5.960 -29.122  0.00  0.00    +0.000 OA
BRANCH  16  18
ATOM     18  C   UNL     1     -46.668  -6.046 -27.165  0.00  0.00    +0.000 C 
BRANCH  18  24
ATOM     19  C   UNL     1     -47.096  -3.925 -22.659  0.00  0.00    +0.000 C 
ATOM     20  C   UNL     1     -47.157  -3.823 -24.141  0.00  0.00    +0.000 A 
ATOM     21  C   UNL     1     -47.465  -2.600 -24.746  0.00  0.00    +0.000 A 
ATOM     22  C   UNL     1     -47.517  -2.503 -26.140  0.00  0.00    +0.000 A 
ATOM     23  C   UNL     1     -47.265  -3.628 -26.929  0.00  0.00    +0.000 A 
ATOM     24  C   UNL     1     -46.964  -4.854 -26.324  0.00  0.00    +0.000 A 
ATOM     25  C   UNL     1     -46.903  -4.948 -24.930  0.00  0.00    +0.000 A 
ENDBRANCH  18  24
ENDBRANCH  16  18
ENDBRANCH   1  15
TORSDOF 4
ENDMDL
MODEL 2
REMARK VINA RESULT:      -6.6      2.693      3.164
REMARK  Name = ZINC000072242160 ZINC72242160 PubChem-95740374
REMARK  4 active torsions:
REMARK  status: ('A' for Active; 'I' for Inactive)
REMARK    1  A    between atoms: C_6  and  C_7
REMARK    2  A    between atoms: C_7  and  N_21
REMARK    3  A    between atoms: C_8  and  C_9
REMARK    4  A    between atoms: C_13  and  C_14
REMARK                            x       y       z     vdW  Elec       q    Type
REMARK                         _______ _______ _______ _____ _____    ______ ____
ROOT
ATOM      1  C   UNL     1     -46.232  -3.770 -31.936  0.00  0.00    +0.000 C 
ATOM      2  C   UNL     1     -47.273  -4.325 -32.917  0.00  0.00    +0.000 C 
ATOM      3  C   UNL     1     -46.449  -5.001 -33.937  0.00  0.00    +0.000 C 
ATOM      4  C   UNL     1     -44.049  -5.692 -34.372  0.00  0.00    +0.000 C 
ATOM      5  C   UNL     1     -44.843  -4.235 -32.415  0.00  0.00    +0.000 C 
ATOM      6  N   UNL     1     -45.066  -4.922 -33.673  0.00  0.00    +0.000 N 
ATOM      7  O   UNL     1     -46.927  -5.602 -34.936  0.00  0.00    +0.000 OA
ENDROOT
BRANCH   5   8
ATOM      8  C   UNL     1     -43.918  -3.070 -32.592  0.00  0.00    +0.000 A 
ATOM      9  C   UNL     1     -42.551  -3.173 -32.291  0.00  0.00    +0.000 A 
ATOM     10  C   UNL     1     -41.708  -2.072 -32.465  0.00  0.00    +0.000 A 
ATOM     11  C   UNL     1     -42.227  -0.863 -32.940  0.00  0.00    +0.000 A 
ATOM     12  C   UNL     1     -43.588  -0.757 -33.240  0.00  0.00    +0.000 A 
ATOM     13  C   UNL     1     -44.431  -1.857 -33.067  0.00  0.00    +0.000 A 
ATOM     14  F   UNL     1     -41.410   0.204 -33.108  0.00  0.00    +0.000 F 
ENDBRANCH   5   8
BRANCH   1  15
ATOM     15  C   UNL     1     -46.500  -4.254 -30.550  0.00  0.00    +0.000 C 
ATOM     16  N   UNL     1     -46.150  -5.588 -30.176  0.00  0.00    +0.000 NA
ATOM     17  O   UNL     1     -47.035  -3.476 -29.717  0.00  0.00    +0.000 OA
BRANCH  16  18
ATOM     18  C   UNL     1     -46.389  -6.101 -28.836  0.00  0.00    +0.000 C 
BRANCH  18  24
ATOM     19  C   UNL     1     -43.824  -7.604 -24.818  0.00  0.00    +0.000 C 
ATOM     20  C   UNL     1     -43.846  -7.090 -26.213  0.00  0.00    +0.000 A 
ATOM     21  C   UNL     1     -42.646  -6.863 -26.895  0.00  0.00    +0.000 A 
ATOM     22  C   UNL     1     -42.668  -6.384 -28.208  0.00  0.00    +0.000 A 
ATOM     23  C   UNL     1     -43.888  -6.128 -28.839  0.00  0.00    +0.000 A 
ATOM     24  C   UNL     1     -45.089  -6.347 -28.155  0.00  0.00    +0.000 A 
ATOM     25  C   UNL     1     -45.067  -6.835 -26.844  0.00  0.00    +0.000 A 
ENDBRANCH  18  24
ENDBRANCH  16  18
ENDBRANCH   1  15
TORSDOF 4
ENDMDL
MODEL 3
REMARK VINA RESULT:      -6.6     11.718     13.363
REMARK  Name = ZINC000072242160 ZINC72242160 PubChem-95740374
REMARK  4 active torsions:
REMARK  status: ('A' for Active; 'I' for Inactive)
REMARK    1  A    between atoms: C_6  and  C_7
REMARK    2  A    between atoms: C_7  and  N_21
REMARK    3  A    between atoms: C_8  and  C_9
REMARK    4  A    between atoms: C_13  and  C_14
REMARK                            x       y       z     vdW  Elec       q    Type
REMARK                         _______ _______ _______ _____ _____    ______ ____
ROOT
ATOM      1  C   UNL     1     -44.629 -17.932 -26.187  0.00  0.00    +0.000 C 
ATOM      2  C   UNL     1     -43.554 -18.848 -26.788  0.00  0.00    +0.000 C 
ATOM      3  C   UNL     1     -42.368 -17.972 -26.863  0.00  0.00    +0.000 C 
ATOM      4  C   UNL     1     -41.572 -15.686 -26.110  0.00  0.00    +0.000 C 
ATOM      5  C   UNL     1     -43.966 -16.577 -25.871  0.00  0.00    +0.000 C 
ATOM      6  N   UNL     1     -42.609 -16.671 -26.375  0.00  0.00    +0.000 N 
ATOM      7  O   UNL     1     -41.249 -18.347 -27.303  0.00  0.00    +0.000 OA
ENDROOT
BRANCH   5   8
ATOM      8  C   UNL     1     -44.708 -15.451 -26.522  0.00  0.00    +0.000 A 
ATOM      9  C   UNL     1     -44.517 -15.140 -27.877  0.00  0.00    +0.000 A 
ATOM     10  C   UNL     1     -45.222 -14.085 -28.462  0.00  0.00    +0.000 A 
ATOM     11  C   UNL     1     -46.122 -13.336 -27.697  0.00  0.00    +0.000 A 
ATOM     12  C   UNL     1     -46.315 -13.644 -26.346  0.00  0.00    +0.000 A 
ATOM     13  C   UNL     1     -45.610 -14.699 -25.761  0.00  0.00    +0.000 A 
ATOM     14  F   UNL     1     -46.805 -12.313 -28.263  0.00  0.00    +0.000 F 
ENDBRANCH   5   8
BRANCH   1  15
ATOM     15  C   UNL     1     -45.207 -18.536 -24.951  0.00  0.00    +0.000 C 
ATOM     16  N   UNL     1     -44.593 -18.301 -23.682  0.00  0.00    +0.000 NA
ATOM     17  O   UNL     1     -46.238 -19.253 -25.039  0.00  0.00    +0.000 OA
BRANCH  16  18
ATOM     18  C   UNL     1     -45.124 -18.866 -22.452  0.00  0.00    +0.000 C 
BRANCH  18  24
ATOM     19  C   UNL     1     -46.001 -14.017 -21.614  0.00  0.00    +0.000 C 
ATOM     20  C   UNL     1     -45.963 -15.421 -21.127  0.00  0.00    +0.000 A 
ATOM     21  C   UNL     1     -46.331 -15.715 -19.810  0.00  0.00    +0.000 A 
ATOM     22  C   UNL     1     -46.299 -17.036 -19.354  0.00  0.00    +0.000 A 
ATOM     23  C   UNL     1     -45.899 -18.064 -20.213  0.00  0.00    +0.000 A 
ATOM     24  C   UNL     1     -45.524 -17.769 -21.529  0.00  0.00    +0.000 A 
ATOM     25  C   UNL     1     -45.563 -16.448 -21.987  0.00  0.00    +0.000 A 
ENDBRANCH  18  24
ENDBRANCH  16  18
ENDBRANCH   1  15
TORSDOF 4
ENDMDL
