MODEL 1
REMARK VINA RESULT:      -6.4      0.000      0.000
REMARK  Name = ZINC000096181230
REMARK  4 active torsions:
REMARK  status: ('A' for Active; 'I' for Inactive)
REMARK    1  A    between atoms: C_3  and  C_4
REMARK    2  A    between atoms: C_4  and  N_20
REMARK    3  A    between atoms: C_5  and  C_6
REMARK    4  A    between atoms: C_10  and  C_11
REMARK                            x       y       z     vdW  Elec       q    Type
REMARK                         _______ _______ _______ _____ _____    ______ ____
ROOT
ATOM      1  C   UNL     1     -44.735 -17.869 -26.188  0.00  0.00    +0.000 C 
ATOM      2  C   UNL     1     -43.654 -18.856 -26.649  0.00  0.00    +0.000 C 
ATOM      3  C   UNL     1     -42.438 -18.022 -26.701  0.00  0.00    +0.000 C 
ATOM      4  C   UNL     1     -41.620 -15.708 -26.061  0.00  0.00    +0.000 C 
ATOM      5  C   UNL     1     -44.052 -16.514 -25.923  0.00  0.00    +0.000 C 
ATOM      6  N   UNL     1     -42.667 -16.682 -26.321  0.00  0.00    +0.000 N 
ATOM      7  O   UNL     1     -41.305 -18.458 -27.037  0.00  0.00    +0.000 OA
ENDROOT
BRANCH   5   8
ATOM      8  C   UNL     1     -44.712 -15.419 -26.704  0.00  0.00    +0.000 A 
ATOM      9  C   UNL     1     -44.379 -15.178 -28.045  0.00  0.00    +0.000 A 
ATOM     10  C   UNL     1     -45.011 -14.151 -28.752  0.00  0.00    +0.000 A 
ATOM     11  C   UNL     1     -45.978 -13.361 -28.122  0.00  0.00    +0.000 A 
ATOM     12  C   UNL     1     -46.649 -12.269 -28.873  0.00  0.00    +0.000 C 
ATOM     13  C   UNL     1     -46.313 -13.599 -26.786  0.00  0.00    +0.000 A 
ATOM     14  C   UNL     1     -45.681 -14.626 -26.078  0.00  0.00    +0.000 A 
ENDBRANCH   5   8
BRANCH   1  15
ATOM     15  C   UNL     1     -45.414 -18.363 -24.954  0.00  0.00    +0.000 C 
ATOM     16  N   UNL     1     -44.953 -17.947 -23.666  0.00  0.00    +0.000 NA
ATOM     17  O   UNL     1     -46.402 -19.137 -25.059  0.00  0.00    +0.000 OA
BRANCH  16  18
ATOM     18  C   UNL     1     -45.601 -18.380 -22.439  0.00  0.00    +0.000 C 
BRANCH  18  21
ATOM     19  C   UNL     1     -45.730 -18.382 -19.268  0.00  0.00    +0.000 C 
ATOM     20  C   UNL     1     -44.639 -18.936 -20.122  0.00  0.00    +0.000 A 
ATOM     21  C   UNL     1     -44.578 -18.914 -21.496  0.00  0.00    +0.000 A 
ATOM     22  C   UNL     1     -43.409 -19.573 -21.837  0.00  0.00    +0.000 A 
ATOM     23  C   UNL     1     -43.201 -19.819 -18.282  0.00  0.00    +0.000 C 
ATOM     24  N   UNL     1     -42.796 -19.954 -20.693  0.00  0.00    +0.000 NA
ATOM     25  N   UNL     1     -43.543 -19.566 -19.671  0.00  0.00    +0.000 N 
ENDBRANCH  18  21
ENDBRANCH  16  18
ENDBRANCH   1  15
TORSDOF 4
ENDMDL
MODEL 2
REMARK VINA RESULT:      -6.3      2.505      7.353
REMARK  Name = ZINC000096181230
REMARK  4 active torsions:
REMARK  status: ('A' for Active; 'I' for Inactive)
REMARK    1  A    between atoms: C_3  and  C_4
REMARK    2  A    between atoms: C_4  and  N_20
REMARK    3  A    between atoms: C_5  and  C_6
REMARK    4  A    between atoms: C_10  and  C_11
REMARK                            x       y       z     vdW  Elec       q    Type
REMARK                         _______ _______ _______ _____ _____    ______ ____
ROOT
ATOM      1  C   UNL     1     -43.651 -18.687 -21.112  0.00  0.00    +0.000 C 
ATOM      2  C   UNL     1     -42.404 -19.506 -20.753  0.00  0.00    +0.000 C 
ATOM      3  C   UNL     1     -42.768 -20.128 -19.465  0.00  0.00    +0.000 C 
ATOM      4  C   UNL     1     -44.765 -20.430 -17.931  0.00  0.00    +0.000 C 
ATOM      5  C   UNL     1     -44.713 -18.950 -20.027  0.00  0.00    +0.000 C 
ATOM      6  N   UNL     1     -44.068 -19.787 -19.033  0.00  0.00    +0.000 N 
ATOM      7  O   UNL     1     -42.007 -20.896 -18.820  0.00  0.00    +0.000 OA
ENDROOT
BRANCH   5   8
ATOM      8  C   UNL     1     -45.193 -17.664 -19.424  0.00  0.00    +0.000 A 
ATOM      9  C   UNL     1     -44.292 -16.663 -19.031  0.00  0.00    +0.000 A 
ATOM     10  C   UNL     1     -44.766 -15.473 -18.473  0.00  0.00    +0.000 A 
ATOM     11  C   UNL     1     -46.140 -15.277 -18.306  0.00  0.00    +0.000 A 
ATOM     12  C   UNL     1     -46.643 -14.012 -17.711  0.00  0.00    +0.000 C 
ATOM     13  C   UNL     1     -47.040 -16.272 -18.697  0.00  0.00    +0.000 A 
ATOM     14  C   UNL     1     -46.567 -17.464 -19.255  0.00  0.00    +0.000 A 
ENDBRANCH   5   8
BRANCH   1  15
ATOM     15  C   UNL     1     -44.171 -19.073 -22.456  0.00  0.00    +0.000 C 
ATOM     16  N   UNL     1     -45.355 -18.460 -22.972  0.00  0.00    +0.000 NA
ATOM     17  O   UNL     1     -43.551 -19.934 -23.136  0.00  0.00    +0.000 OA
BRANCH  16  18
ATOM     18  C   UNL     1     -45.881 -18.784 -24.287  0.00  0.00    +0.000 C 
BRANCH  18  21
ATOM     19  C   UNL     1     -46.518 -15.700 -24.681  0.00  0.00    +0.000 C 
ATOM     20  C   UNL     1     -45.549 -16.523 -25.462  0.00  0.00    +0.000 A 
ATOM     21  C   UNL     1     -45.292 -17.865 -25.301  0.00  0.00    +0.000 A 
ATOM     22  C   UNL     1     -44.302 -18.177 -26.217  0.00  0.00    +0.000 A 
ATOM     23  C   UNL     1     -44.694 -14.703 -26.943  0.00  0.00    +0.000 C 
ATOM     24  N   UNL     1     -44.002 -17.052 -26.906  0.00  0.00    +0.000 NA
ATOM     25  N   UNL     1     -44.756 -16.067 -26.444  0.00  0.00    +0.000 N 
ENDBRANCH  18  21
ENDBRANCH  16  18
ENDBRANCH   1  15
TORSDOF 4
ENDMDL
MODEL 3
REMARK VINA RESULT:      -6.2     11.453     15.474
REMARK  Name = ZINC000096181230
REMARK  4 active torsions:
REMARK  status: ('A' for Active; 'I' for Inactive)
REMARK    1  A    between atoms: C_3  and  C_4
REMARK    2  A    between atoms: C_4  and  N_20
REMARK    3  A    between atoms: C_5  and  C_6
REMARK    4  A    between atoms: C_10  and  C_11
REMARK                            x       y       z     vdW  Elec       q    Type
REMARK                         _______ _______ _______ _____ _____    ______ ____
ROOT
ATOM      1  C   UNL     1     -46.762  -4.972 -30.279  0.00  0.00    +0.000 C 
ATOM      2  C   UNL     1     -47.436  -4.561 -28.963  0.00  0.00    +0.000 C 
ATOM      3  C   UNL     1     -46.603  -5.221 -27.939  0.00  0.00    +0.000 C 
ATOM      4  C   UNL     1     -44.427  -6.505 -27.712  0.00  0.00    +0.000 C 
ATOM      5  C   UNL     1     -45.511  -5.799 -29.928  0.00  0.00    +0.000 C 
ATOM      6  N   UNL     1     -45.528  -5.953 -28.486  0.00  0.00    +0.000 N 
ATOM      7  O   UNL     1     -46.817  -5.133 -26.701  0.00  0.00    +0.000 OA
ENDROOT
BRANCH   5   8
ATOM      8  C   UNL     1     -45.537  -7.130 -30.616  0.00  0.00    +0.000 A 
ATOM      9  C   UNL     1     -44.421  -7.610 -31.318  0.00  0.00    +0.000 A 
ATOM     10  C   UNL     1     -44.471  -8.856 -31.949  0.00  0.00    +0.000 A 
ATOM     11  C   UNL     1     -45.635  -9.627 -31.882  0.00  0.00    +0.000 A 
ATOM     12  C   UNL     1     -45.689 -10.951 -32.554  0.00  0.00    +0.000 C 
ATOM     13  C   UNL     1     -46.749  -9.152 -31.184  0.00  0.00    +0.000 A 
ATOM     14  C   UNL     1     -46.700  -7.905 -30.552  0.00  0.00    +0.000 A 
ENDBRANCH   5   8
BRANCH   1  15
ATOM     15  C   UNL     1     -46.387  -3.771 -31.081  0.00  0.00    +0.000 C 
ATOM     16  N   UNL     1     -46.220  -3.876 -32.497  0.00  0.00    +0.000 NA
ATOM     17  O   UNL     1     -46.231  -2.664 -30.501  0.00  0.00    +0.000 OA
BRANCH  16  18
ATOM     18  C   UNL     1     -45.883  -2.727 -33.321  0.00  0.00    +0.000 C 
BRANCH  18  21
ATOM     19  C   UNL     1     -44.228  -0.276 -32.170  0.00  0.00    +0.000 C 
ATOM     20  C   UNL     1     -43.681  -1.497 -32.831  0.00  0.00    +0.000 A 
ATOM     21  C   UNL     1     -44.405  -2.547 -33.347  0.00  0.00    +0.000 A 
ATOM     22  C   UNL     1     -43.473  -3.456 -33.820  0.00  0.00    +0.000 A 
ATOM     23  C   UNL     1     -41.259  -0.931 -32.608  0.00  0.00    +0.000 C 
ATOM     24  N   UNL     1     -42.241  -2.943 -33.601  0.00  0.00    +0.000 NA
ATOM     25  N   UNL     1     -42.379  -1.767 -33.008  0.00  0.00    +0.000 N 
ENDBRANCH  18  21
ENDBRANCH  16  18
ENDBRANCH   1  15
TORSDOF 4
ENDMDL
