MODEL 1
REMARK VINA RESULT:      -6.2      0.000      0.000
REMARK  Name = ZINC000072238206 ZINC72238206 PubChem-95738335
REMARK  4 active torsions:
REMARK  status: ('A' for Active; 'I' for Inactive)
REMARK    1  A    between atoms: C_2  and  N_20
REMARK    2  A    between atoms: C_4  and  N_22
REMARK    3  A    between atoms: C_6  and  C_7
REMARK    4  A    between atoms: C_11  and  C_12
REMARK                            x       y       z     vdW  Elec       q    Type
REMARK                         _______ _______ _______ _____ _____    ______ ____
ROOT
ATOM      1  C   UNL     1     -46.159 -17.830 -20.393  0.00  0.00    +0.000 C 
ATOM      2  C   UNL     1     -46.599 -19.197 -19.863  0.00  0.00    +0.000 C 
ATOM      3  C   UNL     1     -45.704 -19.679 -18.728  0.00  0.00    +0.000 C 
ATOM      4  C   UNL     1     -44.258 -19.584 -19.099  0.00  0.00    +0.000 C 
ATOM      5  C   UNL     1     -44.705 -17.838 -20.889  0.00  0.00    +0.000 C 
ATOM      6  C   UNL     1     -42.369 -18.270 -20.084  0.00  0.00    +0.000 C 
ATOM      7  N   UNL     1     -43.795 -18.552 -19.986  0.00  0.00    +0.000 N 
ATOM      8  O   UNL     1     -43.442 -20.393 -18.581  0.00  0.00    +0.000 OA
ENDROOT
BRANCH   5   9
ATOM      9  C   UNL     1     -44.602 -18.366 -22.289  0.00  0.00    +0.000 A 
ATOM     10  C   UNL     1     -43.850 -19.515 -22.580  0.00  0.00    +0.000 A 
ATOM     11  C   UNL     1     -43.760 -19.981 -23.896  0.00  0.00    +0.000 A 
ATOM     12  C   UNL     1     -44.419 -19.301 -24.924  0.00  0.00    +0.000 A 
ATOM     13  C   UNL     1     -45.167 -18.155 -24.638  0.00  0.00    +0.000 A 
ATOM     14  C   UNL     1     -45.256 -17.688 -23.323  0.00  0.00    +0.000 A 
ATOM     15  C   UNL     1     -44.325 -19.797 -26.322  0.00  0.00    +0.000 C 
ENDBRANCH   5   9
BRANCH   1  16
ATOM     16  C   UNL     1     -46.415 -16.728 -19.411  0.00  0.00    +0.000 C 
ATOM     17  N   UNL     1     -45.542 -15.592 -19.356  0.00  0.00    +0.000 NA
ATOM     18  O   UNL     1     -47.395 -16.827 -18.626  0.00  0.00    +0.000 OA
BRANCH  17  20
ATOM     19  C   UNL     1     -46.068 -13.218 -18.827  0.00  0.00    +0.000 A 
ATOM     20  C   UNL     1     -45.677 -14.486 -18.459  0.00  0.00    +0.000 A 
ATOM     21  C   UNL     1     -45.444 -14.478 -17.096  0.00  0.00    +0.000 A 
ATOM     22  N   UNL     1     -46.067 -12.492 -17.693  0.00  0.00    +0.000 N 
ATOM     23  N   UNL     1     -45.694 -13.228 -16.658  0.00  0.00    +0.000 NA
BRANCH  22  25
ATOM     24  C   UNL     1     -45.629 -10.440 -16.450  0.00  0.00    +0.000 C 
ATOM     25  C   UNL     1     -46.391 -11.079 -17.596  0.00  0.00    +0.000 C 
ENDBRANCH  22  25
ENDBRANCH  17  20
ENDBRANCH   1  16
TORSDOF 4
ENDMDL
MODEL 2
REMARK VINA RESULT:      -6.0     14.927     17.645
REMARK  Name = ZINC000072238206 ZINC72238206 PubChem-95738335
REMARK  4 active torsions:
REMARK  status: ('A' for Active; 'I' for Inactive)
REMARK    1  A    between atoms: C_2  and  N_20
REMARK    2  A    between atoms: C_4  and  N_22
REMARK    3  A    between atoms: C_6  and  C_7
REMARK    4  A    between atoms: C_11  and  C_12
REMARK                            x       y       z     vdW  Elec       q    Type
REMARK                         _______ _______ _______ _____ _____    ______ ____
ROOT
ATOM      1  C   UNL     1     -44.957  -6.980 -32.864  0.00  0.00    +0.000 C 
ATOM      2  C   UNL     1     -43.749  -7.336 -31.995  0.00  0.00    +0.000 C 
ATOM      3  C   UNL     1     -44.170  -7.887 -30.638  0.00  0.00    +0.000 C 
ATOM      4  C   UNL     1     -45.178  -7.000 -29.980  0.00  0.00    +0.000 C 
ATOM      5  C   UNL     1     -45.880  -5.955 -32.186  0.00  0.00    +0.000 C 
ATOM      6  C   UNL     1     -47.278  -5.648 -30.128  0.00  0.00    +0.000 C 
ATOM      7  N   UNL     1     -46.114  -6.244 -30.767  0.00  0.00    +0.000 N 
ATOM      8  O   UNL     1     -45.228  -6.963 -28.721  0.00  0.00    +0.000 OA
ENDROOT
BRANCH   5   9
ATOM      9  C   UNL     1     -45.383  -4.552 -32.378  0.00  0.00    +0.000 A 
ATOM     10  C   UNL     1     -45.955  -3.702 -33.336  0.00  0.00    +0.000 A 
ATOM     11  C   UNL     1     -45.467  -2.402 -33.503  0.00  0.00    +0.000 A 
ATOM     12  C   UNL     1     -44.405  -1.948 -32.715  0.00  0.00    +0.000 A 
ATOM     13  C   UNL     1     -43.830  -2.795 -31.762  0.00  0.00    +0.000 A 
ATOM     14  C   UNL     1     -44.318  -4.094 -31.596  0.00  0.00    +0.000 A 
ATOM     15  C   UNL     1     -43.886  -0.567 -32.891  0.00  0.00    +0.000 C 
ENDBRANCH   5   9
BRANCH   1  16
ATOM     16  C   UNL     1     -45.703  -8.193 -33.328  0.00  0.00    +0.000 C 
ATOM     17  N   UNL     1     -45.028  -9.218 -34.069  0.00  0.00    +0.000 NA
ATOM     18  O   UNL     1     -46.933  -8.285 -33.073  0.00  0.00    +0.000 OA
BRANCH  17  20
ATOM     19  C   UNL     1     -46.320 -10.506 -35.760  0.00  0.00    +0.000 A 
ATOM     20  C   UNL     1     -45.632 -10.412 -34.572  0.00  0.00    +0.000 A 
ATOM     21  C   UNL     1     -45.645 -11.660 -33.976  0.00  0.00    +0.000 A 
ATOM     22  N   UNL     1     -46.717 -11.789 -35.852  0.00  0.00    +0.000 N 
ATOM     23  N   UNL     1     -46.327 -12.484 -34.796  0.00  0.00    +0.000 NA
BRANCH  22  25
ATOM     24  C   UNL     1     -47.021 -13.754 -37.266  0.00  0.00    +0.000 C 
ATOM     25  C   UNL     1     -47.504 -12.353 -36.936  0.00  0.00    +0.000 C 
ENDBRANCH  22  25
ENDBRANCH  17  20
ENDBRANCH   1  16
TORSDOF 4
ENDMDL
MODEL 3
REMARK VINA RESULT:      -5.9      4.719      7.141
REMARK  Name = ZINC000072238206 ZINC72238206 PubChem-95738335
REMARK  4 active torsions:
REMARK  status: ('A' for Active; 'I' for Inactive)
REMARK    1  A    between atoms: C_2  and  N_20
REMARK    2  A    between atoms: C_4  and  N_22
REMARK    3  A    between atoms: C_6  and  C_7
REMARK    4  A    between atoms: C_11  and  C_12
REMARK                            x       y       z     vdW  Elec       q    Type
REMARK                         _______ _______ _______ _____ _____    ______ ____
ROOT
ATOM      1  C   UNL     1     -44.776 -16.098 -23.546  0.00  0.00    +0.000 C 
ATOM      2  C   UNL     1     -43.280 -15.957 -23.837  0.00  0.00    +0.000 C 
ATOM      3  C   UNL     1     -42.894 -16.623 -25.153  0.00  0.00    +0.000 C 
ATOM      4  C   UNL     1     -43.420 -18.020 -25.229  0.00  0.00    +0.000 C 
ATOM      5  C   UNL     1     -45.224 -17.567 -23.499  0.00  0.00    +0.000 C 
ATOM      6  C   UNL     1     -45.314 -19.627 -24.925  0.00  0.00    +0.000 C 
ATOM      7  N   UNL     1     -44.655 -18.375 -24.583  0.00  0.00    +0.000 N 
ATOM      8  O   UNL     1     -42.791 -18.872 -25.913  0.00  0.00    +0.000 OA
ENDROOT
BRANCH   5   9
ATOM      9  C   UNL     1     -44.949 -18.186 -22.160  0.00  0.00    +0.000 A 
ATOM     10  C   UNL     1     -43.703 -18.761 -21.867  0.00  0.00    +0.000 A 
ATOM     11  C   UNL     1     -43.474 -19.342 -20.616  0.00  0.00    +0.000 A 
ATOM     12  C   UNL     1     -44.489 -19.351 -19.654  0.00  0.00    +0.000 A 
ATOM     13  C   UNL     1     -45.733 -18.781 -19.945  0.00  0.00    +0.000 A 
ATOM     14  C   UNL     1     -45.961 -18.202 -21.196  0.00  0.00    +0.000 A 
ATOM     15  C   UNL     1     -44.247 -19.968 -18.324  0.00  0.00    +0.000 C 
ENDBRANCH   5   9
BRANCH   1  16
ATOM     16  C   UNL     1     -45.618 -15.279 -24.476  0.00  0.00    +0.000 C 
ATOM     17  N   UNL     1     -45.038 -14.190 -25.207  0.00  0.00    +0.000 NA
ATOM     18  O   UNL     1     -46.842 -15.552 -24.588  0.00  0.00    +0.000 OA
BRANCH  17  20
ATOM     19  C   UNL     1     -45.990 -13.625 -27.435  0.00  0.00    +0.000 A 
ATOM     20  C   UNL     1     -45.739 -13.334 -26.113  0.00  0.00    +0.000 A 
ATOM     21  C   UNL     1     -46.276 -12.089 -25.845  0.00  0.00    +0.000 A 
ATOM     22  N   UNL     1     -46.667 -12.568 -27.919  0.00  0.00    +0.000 N 
ATOM     23  N   UNL     1     -46.840 -11.646 -26.986  0.00  0.00    +0.000 NA
BRANCH  22  25
ATOM     24  C   UNL     1     -46.180 -13.120 -30.245  0.00  0.00    +0.000 C 
ATOM     25  C   UNL     1     -47.126 -12.416 -29.290  0.00  0.00    +0.000 C 
ENDBRANCH  22  25
ENDBRANCH  17  20
ENDBRANCH   1  16
TORSDOF 4
ENDMDL
