MODEL 1
REMARK VINA RESULT:      -6.0      0.000      0.000
REMARK  Name = ZINC000005322760
REMARK  7 active torsions:
REMARK  status: ('A' for Active; 'I' for Inactive)
REMARK    1  A    between atoms: C_2  and  C_3
REMARK    2  A    between atoms: C_2  and  O_22
REMARK    3  A    between atoms: C_3  and  C_4
REMARK    4  A    between atoms: C_4  and  N_26
REMARK    5  A    between atoms: C_5  and  C_6
REMARK    6  A    between atoms: C_7  and  C_8
REMARK    7  A    between atoms: C_7  and  N_27
REMARK                            x       y       z     vdW  Elec       q    Type
REMARK                         _______ _______ _______ _____ _____    ______ ____
ROOT
ATOM      1  C   UNL     1     -46.733  -5.692 -28.949  0.00  0.00    +0.000 A 
ATOM      2  C   UNL     1     -47.141  -4.402 -28.587  0.00  0.00    +0.000 A 
ATOM      3  C   UNL     1     -47.077  -4.412 -27.206  0.00  0.00    +0.000 A 
ATOM      4  C   UNL     1     -46.658  -5.638 -26.804  0.00  0.00    +0.000 A 
ATOM      5  C   UNL     1     -46.757  -4.999 -24.552  0.00  0.00    +0.000 A 
ATOM      6  C   UNL     1     -46.589  -5.302 -23.191  0.00  0.00    +0.000 A 
ATOM      7  C   UNL     1     -46.124  -6.645 -22.741  0.00  0.00    +0.000 C 
ATOM      8  C   UNL     1     -46.863  -4.326 -22.235  0.00  0.00    +0.000 A 
ATOM      9  C   UNL     1     -47.297  -3.063 -22.630  0.00  0.00    +0.000 A 
ATOM     10  C   UNL     1     -47.456  -2.786 -23.987  0.00  0.00    +0.000 A 
ATOM     11  C   UNL     1     -47.354  -3.429 -26.264  0.00  0.00    +0.000 A 
ATOM     12  O   UNL     1     -47.745  -2.286 -26.633  0.00  0.00    +0.000 OA
ATOM     13  N   UNL     1     -46.432  -6.440 -27.852  0.00  0.00    +0.000 N 
ATOM     14  N   UNL     1     -46.491  -5.951 -25.499  0.00  0.00    +0.000 NA
ATOM     15  N   UNL     1     -47.190  -3.735 -24.933  0.00  0.00    +0.000 N 
ENDROOT
BRANCH   1  16
ATOM     16  C   UNL     1     -46.673  -6.159 -30.349  0.00  0.00    +0.000 C 
ATOM     17  O   UNL     1     -47.651  -6.791 -30.835  0.00  0.00    +0.000 OA
ATOM     18  N   UNL     1     -45.516  -5.917 -31.150  0.00  0.00    +0.000 NA
BRANCH  18  19
ATOM     19  C   UNL     1     -45.421  -6.366 -32.530  0.00  0.00    +0.000 C 
BRANCH  19  20
ATOM     20  C   UNL     1     -45.729  -5.213 -33.466  0.00  0.00    +0.000 C 
ATOM     21  C   UNL     1     -45.090  -3.948 -32.944  0.00  0.00    +0.000 C 
ATOM     22  C   UNL     1     -46.115  -2.889 -33.213  0.00  0.00    +0.000 C 
ATOM     23  C   UNL     1     -47.265  -3.644 -33.840  0.00  0.00    +0.000 C 
ATOM     24  O   UNL     1     -47.115  -5.006 -33.544  0.00  0.00    +0.000 OA
ENDBRANCH  19  20
ENDBRANCH  18  19
ENDBRANCH   1  16
BRANCH  13  25
ATOM     25  C   UNL     1     -45.964  -7.821 -27.780  0.00  0.00    +0.000 C 
BRANCH  25  26
ATOM     26  C   UNL     1     -47.127  -8.792 -27.913  0.00  0.00    +0.000 C 
BRANCH  26  27
ATOM     27  C   UNL     1     -46.871  -9.768 -29.045  0.00  0.00    +0.000 C 
BRANCH  27  29
ATOM     28  C   UNL     1     -45.836  -9.917 -30.985  0.00  0.00    +0.000 C 
ATOM     29  O   UNL     1     -45.680  -9.435 -29.687  0.00  0.00    +0.000 OA
ENDBRANCH  27  29
ENDBRANCH  26  27
ENDBRANCH  25  26
ENDBRANCH  13  25
TORSDOF 7
ENDMDL
MODEL 2
REMARK VINA RESULT:      -5.6      8.676     11.237
REMARK  Name = ZINC000005322760
REMARK  7 active torsions:
REMARK  status: ('A' for Active; 'I' for Inactive)
REMARK    1  A    between atoms: C_2  and  C_3
REMARK    2  A    between atoms: C_2  and  O_22
REMARK    3  A    between atoms: C_3  and  C_4
REMARK    4  A    between atoms: C_4  and  N_26
REMARK    5  A    between atoms: C_5  and  C_6
REMARK    6  A    between atoms: C_7  and  C_8
REMARK    7  A    between atoms: C_7  and  N_27
REMARK                            x       y       z     vdW  Elec       q    Type
REMARK                         _______ _______ _______ _____ _____    ______ ____
ROOT
ATOM      1  C   UNL     1     -45.497 -13.649 -24.017  0.00  0.00    +0.000 A 
ATOM      2  C   UNL     1     -46.116 -13.590 -22.761  0.00  0.00    +0.000 A 
ATOM      3  C   UNL     1     -45.835 -14.820 -22.198  0.00  0.00    +0.000 A 
ATOM      4  C   UNL     1     -45.100 -15.541 -23.082  0.00  0.00    +0.000 A 
ATOM      5  C   UNL     1     -44.981 -17.351 -21.599  0.00  0.00    +0.000 A 
ATOM      6  C   UNL     1     -44.539 -18.649 -21.294  0.00  0.00    +0.000 A 
ATOM      7  C   UNL     1     -43.727 -19.444 -22.258  0.00  0.00    +0.000 C 
ATOM      8  C   UNL     1     -44.866 -19.209 -20.061  0.00  0.00    +0.000 A 
ATOM      9  C   UNL     1     -45.623 -18.485 -19.143  0.00  0.00    +0.000 A 
ATOM     10  C   UNL     1     -46.049 -17.199 -19.469  0.00  0.00    +0.000 A 
ATOM     11  C   UNL     1     -46.169 -15.366 -20.964  0.00  0.00    +0.000 A 
ATOM     12  O   UNL     1     -46.853 -14.700 -20.138  0.00  0.00    +0.000 OA
ATOM     13  N   UNL     1     -44.872 -14.843 -24.202  0.00  0.00    +0.000 N 
ATOM     14  N   UNL     1     -44.665 -16.792 -22.808  0.00  0.00    +0.000 NA
ATOM     15  N   UNL     1     -45.735 -16.638 -20.674  0.00  0.00    +0.000 N 
ENDROOT
BRANCH   1  16
ATOM     16  C   UNL     1     -45.558 -12.550 -25.002  0.00  0.00    +0.000 C 
ATOM     17  O   UNL     1     -44.698 -11.628 -24.957  0.00  0.00    +0.000 OA
ATOM     18  N   UNL     1     -46.587 -12.513 -25.991  0.00  0.00    +0.000 NA
BRANCH  18  19
ATOM     19  C   UNL     1     -46.680 -11.445 -26.973  0.00  0.00    +0.000 C 
BRANCH  19  20
ATOM     20  C   UNL     1     -46.156 -11.933 -28.311  0.00  0.00    +0.000 C 
ATOM     21  C   UNL     1     -46.328 -13.430 -28.410  0.00  0.00    +0.000 C 
ATOM     22  C   UNL     1     -45.074 -13.892 -29.088  0.00  0.00    +0.000 C 
ATOM     23  C   UNL     1     -44.281 -12.621 -29.294  0.00  0.00    +0.000 C 
ATOM     24  O   UNL     1     -44.791 -11.637 -28.437  0.00  0.00    +0.000 OA
ENDBRANCH  19  20
ENDBRANCH  18  19
ENDBRANCH   1  16
BRANCH  13  25
ATOM     25  C   UNL     1     -44.107 -15.313 -25.354  0.00  0.00    +0.000 C 
BRANCH  25  26
ATOM     26  C   UNL     1     -44.965 -16.197 -26.246  0.00  0.00    +0.000 C 
BRANCH  26  27
ATOM     27  C   UNL     1     -44.416 -17.610 -26.270  0.00  0.00    +0.000 C 
BRANCH  27  29
ATOM     28  C   UNL     1     -44.761 -19.742 -25.822  0.00  0.00    +0.000 C 
ATOM     29  O   UNL     1     -45.346 -18.482 -25.706  0.00  0.00    +0.000 OA
ENDBRANCH  27  29
ENDBRANCH  26  27
ENDBRANCH  25  26
ENDBRANCH  13  25
TORSDOF 7
ENDMDL
MODEL 3
REMARK VINA RESULT:      -5.6      4.097      7.340
REMARK  Name = ZINC000005322760
REMARK  7 active torsions:
REMARK  status: ('A' for Active; 'I' for Inactive)
REMARK    1  A    between atoms: C_2  and  C_3
REMARK    2  A    between atoms: C_2  and  O_22
REMARK    3  A    between atoms: C_3  and  C_4
REMARK    4  A    between atoms: C_4  and  N_26
REMARK    5  A    between atoms: C_5  and  C_6
REMARK    6  A    between atoms: C_7  and  C_8
REMARK    7  A    between atoms: C_7  and  N_27
REMARK                            x       y       z     vdW  Elec       q    Type
REMARK                         _______ _______ _______ _____ _____    ______ ____
ROOT
ATOM      1  C   UNL     1     -45.138  -6.569 -29.955  0.00  0.00    +0.000 A 
ATOM      2  C   UNL     1     -45.945  -5.427 -30.038  0.00  0.00    +0.000 A 
ATOM      3  C   UNL     1     -45.155  -4.515 -30.712  0.00  0.00    +0.000 A 
ATOM      4  C   UNL     1     -43.965  -5.102 -30.996  0.00  0.00    +0.000 A 
ATOM      5  C   UNL     1     -43.194  -3.162 -32.059  0.00  0.00    +0.000 A 
ATOM      6  C   UNL     1     -42.186  -2.471 -32.753  0.00  0.00    +0.000 A 
ATOM      7  C   UNL     1     -40.879  -3.111 -33.073  0.00  0.00    +0.000 C 
ATOM      8  C   UNL     1     -42.411  -1.155 -33.152  0.00  0.00    +0.000 A 
ATOM      9  C   UNL     1     -43.625  -0.536 -32.866  0.00  0.00    +0.000 A 
ATOM     10  C   UNL     1     -44.609  -1.243 -32.177  0.00  0.00    +0.000 A 
ATOM     11  C   UNL     1     -45.394  -3.203 -31.104  0.00  0.00    +0.000 A 
ATOM     12  O   UNL     1     -46.499  -2.652 -30.842  0.00  0.00    +0.000 OA
ATOM     13  N   UNL     1     -43.931  -6.364 -30.550  0.00  0.00    +0.000 N 
ATOM     14  N   UNL     1     -42.982  -4.454 -31.662  0.00  0.00    +0.000 NA
ATOM     15  N   UNL     1     -44.401  -2.533 -31.780  0.00  0.00    +0.000 N 
ENDROOT
BRANCH   1  16
ATOM     16  C   UNL     1     -45.560  -7.812 -29.278  0.00  0.00    +0.000 C 
ATOM     17  O   UNL     1     -45.348  -7.949 -28.042  0.00  0.00    +0.000 OA
ATOM     18  N   UNL     1     -46.191  -8.863 -30.010  0.00  0.00    +0.000 NA
BRANCH  18  19
ATOM     19  C   UNL     1     -46.617 -10.102 -29.377  0.00  0.00    +0.000 C 
BRANCH  19  20
ATOM     20  C   UNL     1     -45.973 -11.282 -30.080  0.00  0.00    +0.000 C 
ATOM     21  C   UNL     1     -46.676 -12.558 -29.680  0.00  0.00    +0.000 C 
ATOM     22  C   UNL     1     -45.563 -13.552 -29.537  0.00  0.00    +0.000 C 
ATOM     23  C   UNL     1     -44.317 -12.751 -29.840  0.00  0.00    +0.000 C 
ATOM     24  O   UNL     1     -44.623 -11.390 -29.713  0.00  0.00    +0.000 OA
ENDBRANCH  19  20
ENDBRANCH  18  19
ENDBRANCH   1  16
BRANCH  13  25
ATOM     25  C   UNL     1     -42.807  -7.286 -30.696  0.00  0.00    +0.000 C 
BRANCH  25  26
ATOM     26  C   UNL     1     -41.650  -6.869 -29.803  0.00  0.00    +0.000 C 
BRANCH  26  27
ATOM     27  C   UNL     1     -41.935  -7.246 -28.362  0.00  0.00    +0.000 C 
BRANCH  27  29
ATOM     28  C   UNL     1     -41.673  -6.426 -26.332  0.00  0.00    +0.000 C 
ATOM     29  O   UNL     1     -42.127  -6.090 -27.607  0.00  0.00    +0.000 OA
ENDBRANCH  27  29
ENDBRANCH  26  27
ENDBRANCH  25  26
ENDBRANCH  13  25
TORSDOF 7
ENDMDL
