MODEL 1
REMARK VINA RESULT:      -5.3      0.000      0.000
REMARK  Name = ZINC000585168577 PubChem-110087557
REMARK  8 active torsions:
REMARK  status: ('A' for Active; 'I' for Inactive)
REMARK    1  A    between atoms: C_2  and  N_24
REMARK    2  A    between atoms: C_3  and  C_17
REMARK    3  A    between atoms: C_4  and  C_7
REMARK    4  A    between atoms: C_8  and  C_9
REMARK    5  A    between atoms: C_8  and  N_25
REMARK    6  A    between atoms: C_14  and  C_15
REMARK    7  A    between atoms: C_15  and  O_28
REMARK    8  A    between atoms: C_20  and  O_29
REMARK                            x       y       z     vdW  Elec       q    Type
REMARK                         _______ _______ _______ _____ _____    ______ ____
ROOT
ATOM      1  C   UNL     1     -44.633  -6.213 -29.212  0.00  0.00    +0.000 C 
ATOM      2  C   UNL     1     -46.169  -6.264 -29.284  0.00  0.00    +0.000 C 
ATOM      3  C   UNL     1     -46.630  -7.542 -28.576  0.00  0.00    +0.000 C 
ATOM      4  C   UNL     1     -45.358  -8.220 -28.259  0.00  0.00    +0.000 C 
ATOM      5  N   UNL     1     -44.216  -7.494 -28.669  0.00  0.00    +0.000 N 
ATOM      6  O   UNL     1     -45.291  -9.327 -27.663  0.00  0.00    +0.000 OA
ENDROOT
BRANCH   1   7
ATOM      7  C   UNL     1     -44.034  -5.980 -30.564  0.00  0.00    +0.000 A 
ATOM      8  C   UNL     1     -44.572  -6.644 -31.671  0.00  0.00    +0.000 A 
ATOM      9  C   UNL     1     -44.031  -6.441 -32.944  0.00  0.00    +0.000 A 
ATOM     10  C   UNL     1     -42.948  -5.574 -33.123  0.00  0.00    +0.000 A 
ATOM     11  C   UNL     1     -42.409  -4.907 -32.010  0.00  0.00    +0.000 A 
ATOM     12  C   UNL     1     -42.948  -5.109 -30.738  0.00  0.00    +0.000 A 
BRANCH  10  14
ATOM     13  C   UNL     1     -41.962  -4.137 -34.877  0.00  0.00    +0.000 C 
ATOM     14  O   UNL     1     -42.431  -5.394 -34.407  0.00  0.00    +0.000 OA
ENDBRANCH  10  14
ENDBRANCH   1   7
BRANCH   2  15
ATOM     15  C   UNL     1     -46.800  -5.039 -28.692  0.00  0.00    +0.000 C 
ATOM     16  N   UNL     1     -47.448  -4.042 -29.490  0.00  0.00    +0.000 NA
ATOM     17  O   UNL     1     -46.743  -4.878 -27.445  0.00  0.00    +0.000 OA
BRANCH  16  18
ATOM     18  C   UNL     1     -47.626  -4.153 -30.929  0.00  0.00    +0.000 C 
BRANCH  18  19
ATOM     19  C   UNL     1     -46.566  -3.378 -31.636  0.00  0.00    +0.000 A 
ATOM     20  C   UNL     1     -45.658  -2.629 -30.879  0.00  0.00    +0.000 A 
ATOM     21  C   UNL     1     -44.647  -1.899 -31.510  0.00  0.00    +0.000 A 
ATOM     22  C   UNL     1     -44.538  -1.917 -32.903  0.00  0.00    +0.000 A 
ATOM     23  C   UNL     1     -45.437  -2.669 -33.664  0.00  0.00    +0.000 A 
ATOM     24  C   UNL     1     -46.447  -3.409 -33.039  0.00  0.00    +0.000 A 
BRANCH  24  25
ATOM     25  C   UNL     1     -47.398  -4.188 -33.886  0.00  0.00    +0.000 C 
BRANCH  25  27
ATOM     26  C   UNL     1     -47.017  -5.630 -35.509  0.00  0.00    +0.000 C 
ATOM     27  O   UNL     1     -46.881  -5.459 -34.132  0.00  0.00    +0.000 OA
ENDBRANCH  25  27
ENDBRANCH  24  25
ENDBRANCH  18  19
ENDBRANCH  16  18
ENDBRANCH   2  15
BRANCH   5  29
ATOM     28  C   UNL     1     -42.455  -6.525 -27.304  0.00  0.00    +0.000 C 
ATOM     29  C   UNL     1     -42.886  -7.724 -28.125  0.00  0.00    +0.000 C 
ENDBRANCH   5  29
TORSDOF 8
ENDMDL
MODEL 2
REMARK VINA RESULT:      -5.3     11.895     15.360
REMARK  Name = ZINC000585168577 PubChem-110087557
REMARK  8 active torsions:
REMARK  status: ('A' for Active; 'I' for Inactive)
REMARK    1  A    between atoms: C_2  and  N_24
REMARK    2  A    between atoms: C_3  and  C_17
REMARK    3  A    between atoms: C_4  and  C_7
REMARK    4  A    between atoms: C_8  and  C_9
REMARK    5  A    between atoms: C_8  and  N_25
REMARK    6  A    between atoms: C_14  and  C_15
REMARK    7  A    between atoms: C_15  and  O_28
REMARK    8  A    between atoms: C_20  and  O_29
REMARK                            x       y       z     vdW  Elec       q    Type
REMARK                         _______ _______ _______ _____ _____    ______ ____
ROOT
ATOM      1  C   UNL     1     -45.689 -15.452 -21.236  0.00  0.00    +0.000 C 
ATOM      2  C   UNL     1     -44.795 -16.445 -20.472  0.00  0.00    +0.000 C 
ATOM      3  C   UNL     1     -44.234 -15.723 -19.244  0.00  0.00    +0.000 C 
ATOM      4  C   UNL     1     -44.709 -14.338 -19.430  0.00  0.00    +0.000 C 
ATOM      5  N   UNL     1     -45.493 -14.164 -20.594  0.00  0.00    +0.000 N 
ATOM      6  O   UNL     1     -44.462 -13.404 -18.622  0.00  0.00    +0.000 OA
ENDROOT
BRANCH   1   7
ATOM      7  C   UNL     1     -45.319 -15.393 -22.686  0.00  0.00    +0.000 A 
ATOM      8  C   UNL     1     -46.323 -15.195 -23.638  0.00  0.00    +0.000 A 
ATOM      9  C   UNL     1     -46.002 -15.134 -24.997  0.00  0.00    +0.000 A 
ATOM     10  C   UNL     1     -44.674 -15.272 -25.417  0.00  0.00    +0.000 A 
ATOM     11  C   UNL     1     -43.666 -15.470 -24.459  0.00  0.00    +0.000 A 
ATOM     12  C   UNL     1     -43.986 -15.531 -23.101  0.00  0.00    +0.000 A 
BRANCH  10  14
ATOM     13  C   UNL     1     -43.441 -16.062 -27.410  0.00  0.00    +0.000 C 
ATOM     14  O   UNL     1     -44.387 -15.207 -26.782  0.00  0.00    +0.000 OA
ENDBRANCH  10  14
ENDBRANCH   1   7
BRANCH   2  15
ATOM     15  C   UNL     1     -45.536 -17.693 -20.096  0.00  0.00    +0.000 C 
ATOM     16  N   UNL     1     -45.157 -18.989 -20.572  0.00  0.00    +0.000 NA
ATOM     17  O   UNL     1     -46.540 -17.591 -19.343  0.00  0.00    +0.000 OA
BRANCH  16  18
ATOM     18  C   UNL     1     -43.983 -19.234 -21.394  0.00  0.00    +0.000 C 
BRANCH  18  19
ATOM     19  C   UNL     1     -44.378 -19.343 -22.829  0.00  0.00    +0.000 A 
ATOM     20  C   UNL     1     -45.585 -18.767 -23.243  0.00  0.00    +0.000 A 
ATOM     21  C   UNL     1     -45.980 -18.845 -24.580  0.00  0.00    +0.000 A 
ATOM     22  C   UNL     1     -45.167 -19.496 -25.512  0.00  0.00    +0.000 A 
ATOM     23  C   UNL     1     -43.958 -20.067 -25.107  0.00  0.00    +0.000 A 
ATOM     24  C   UNL     1     -43.552 -19.987 -23.770  0.00  0.00    +0.000 A 
BRANCH  24  25
ATOM     25  C   UNL     1     -42.260 -20.622 -23.371  0.00  0.00    +0.000 C 
BRANCH  25  27
ATOM     26  C   UNL     1     -41.382 -22.326 -22.282  0.00  0.00    +0.000 C 
ATOM     27  O   UNL     1     -42.464 -21.972 -23.086  0.00  0.00    +0.000 OA
ENDBRANCH  25  27
ENDBRANCH  24  25
ENDBRANCH  18  19
ENDBRANCH  16  18
ENDBRANCH   2  15
BRANCH   5  29
ATOM     28  C   UNL     1     -47.716 -13.324 -20.086  0.00  0.00    +0.000 C 
ATOM     29  C   UNL     1     -46.401 -13.042 -20.786  0.00  0.00    +0.000 C 
ENDBRANCH   5  29
TORSDOF 8
ENDMDL
MODEL 3
REMARK VINA RESULT:      -5.2     11.245     15.269
REMARK  Name = ZINC000585168577 PubChem-110087557
REMARK  8 active torsions:
REMARK  status: ('A' for Active; 'I' for Inactive)
REMARK    1  A    between atoms: C_2  and  N_24
REMARK    2  A    between atoms: C_3  and  C_17
REMARK    3  A    between atoms: C_4  and  C_7
REMARK    4  A    between atoms: C_8  and  C_9
REMARK    5  A    between atoms: C_8  and  N_25
REMARK    6  A    between atoms: C_14  and  C_15
REMARK    7  A    between atoms: C_15  and  O_28
REMARK    8  A    between atoms: C_20  and  O_29
REMARK                            x       y       z     vdW  Elec       q    Type
REMARK                         _______ _______ _______ _____ _____    ______ ____
ROOT
ATOM      1  C   UNL     1     -44.476 -16.206 -25.415  0.00  0.00    +0.000 C 
ATOM      2  C   UNL     1     -44.527 -15.184 -24.267  0.00  0.00    +0.000 C 
ATOM      3  C   UNL     1     -43.635 -14.000 -24.651  0.00  0.00    +0.000 C 
ATOM      4  C   UNL     1     -43.015 -14.452 -25.913  0.00  0.00    +0.000 C 
ATOM      5  N   UNL     1     -43.448 -15.733 -26.325  0.00  0.00    +0.000 N 
ATOM      6  O   UNL     1     -42.197 -13.757 -26.572  0.00  0.00    +0.000 OA
ENDROOT
BRANCH   1   7
ATOM      7  C   UNL     1     -44.154 -17.578 -24.906  0.00  0.00    +0.000 A 
ATOM      8  C   UNL     1     -42.977 -17.776 -24.178  0.00  0.00    +0.000 A 
ATOM      9  C   UNL     1     -42.657 -19.046 -23.691  0.00  0.00    +0.000 A 
ATOM     10  C   UNL     1     -43.509 -20.130 -23.927  0.00  0.00    +0.000 A 
ATOM     11  C   UNL     1     -44.692 -19.930 -24.657  0.00  0.00    +0.000 A 
ATOM     12  C   UNL     1     -45.013 -18.661 -25.144  0.00  0.00    +0.000 A 
BRANCH  10  14
ATOM     13  C   UNL     1     -41.874 -21.670 -22.892  0.00  0.00    +0.000 C 
ATOM     14  O   UNL     1     -43.160 -21.386 -23.426  0.00  0.00    +0.000 OA
ENDBRANCH  10  14
ENDBRANCH   1   7
BRANCH   2  15
ATOM     15  C   UNL     1     -45.931 -14.749 -23.965  0.00  0.00    +0.000 C 
ATOM     16  N   UNL     1     -46.418 -14.587 -22.628  0.00  0.00    +0.000 NA
ATOM     17  O   UNL     1     -46.713 -14.533 -24.928  0.00  0.00    +0.000 OA
BRANCH  16  18
ATOM     18  C   UNL     1     -45.589 -14.749 -21.444  0.00  0.00    +0.000 C 
BRANCH  18  19
ATOM     19  C   UNL     1     -45.873 -16.064 -20.799  0.00  0.00    +0.000 A 
ATOM     20  C   UNL     1     -45.494 -17.237 -21.461  0.00  0.00    +0.000 A 
ATOM     21  C   UNL     1     -45.738 -18.484 -20.880  0.00  0.00    +0.000 A 
ATOM     22  C   UNL     1     -46.359 -18.564 -19.631  0.00  0.00    +0.000 A 
ATOM     23  C   UNL     1     -46.734 -17.396 -18.962  0.00  0.00    +0.000 A 
ATOM     24  C   UNL     1     -46.487 -16.143 -19.534  0.00  0.00    +0.000 A 
BRANCH  24  25
ATOM     25  C   UNL     1     -46.915 -14.917 -18.795  0.00  0.00    +0.000 C 
BRANCH  25  27
ATOM     26  C   UNL     1     -45.842 -13.943 -17.133  0.00  0.00    +0.000 C 
ATOM     27  O   UNL     1     -46.624 -15.057 -17.438  0.00  0.00    +0.000 OA
ENDBRANCH  25  27
ENDBRANCH  24  25
ENDBRANCH  18  19
ENDBRANCH  16  18
ENDBRANCH   2  15
BRANCH   5  29
ATOM     28  C   UNL     1     -42.064 -17.049 -27.827  0.00  0.00    +0.000 C 
ATOM     29  C   UNL     1     -43.323 -16.217 -27.692  0.00  0.00    +0.000 C 
ENDBRANCH   5  29
TORSDOF 8
ENDMDL
