MODEL 1
REMARK VINA RESULT:      -6.2      0.000      0.000
REMARK  Name = ZINC000096180993 ZINC96180993 PubChem-97456961
REMARK  4 active torsions:
REMARK  status: ('A' for Active; 'I' for Inactive)
REMARK    1  A    between atoms: C_2  and  C_14
REMARK    2  A    between atoms: C_3  and  C_6
REMARK    3  A    between atoms: C_7  and  C_8
REMARK    4  A    between atoms: C_7  and  N_21
REMARK                            x       y       z     vdW  Elec       q    Type
REMARK                         _______ _______ _______ _____ _____    ______ ____
ROOT
ATOM      1  C   UNL     1     -41.618 -15.633 -26.010  0.00  0.00    +0.000 C 
ATOM      2  C   UNL     1     -44.003 -16.545 -25.758  0.00  0.00    +0.000 C 
ATOM      3  C   UNL     1     -44.669 -17.884 -26.128  0.00  0.00    +0.000 C 
ATOM      4  C   UNL     1     -43.608 -18.763 -26.803  0.00  0.00    +0.000 C 
ATOM      5  C   UNL     1     -42.427 -17.880 -26.861  0.00  0.00    +0.000 C 
ATOM      6  N   UNL     1     -42.658 -16.607 -26.299  0.00  0.00    +0.000 N 
ATOM      7  O   UNL     1     -41.318 -18.227 -27.346  0.00  0.00    +0.000 OA
ENDROOT
BRANCH   2   8
ATOM      8  C   UNL     1     -44.764 -15.389 -26.331  0.00  0.00    +0.000 A 
ATOM      9  C   UNL     1     -44.740 -15.113 -27.708  0.00  0.00    +0.000 A 
ATOM     10  C   UNL     1     -45.459 -14.028 -28.217  0.00  0.00    +0.000 A 
ATOM     11  C   UNL     1     -46.203 -13.216 -27.357  0.00  0.00    +0.000 A 
ATOM     12  C   UNL     1     -46.230 -13.488 -25.987  0.00  0.00    +0.000 A 
ATOM     13  C   UNL     1     -45.511 -14.573 -25.474  0.00  0.00    +0.000 A 
ATOM     14  F   UNL     1     -46.900 -12.166 -27.853  0.00  0.00    +0.000 F 
ENDBRANCH   2   8
BRANCH   3  15
ATOM     15  C   UNL     1     -45.215 -18.554 -24.912  0.00  0.00    +0.000 C 
ATOM     16  N   UNL     1     -44.550 -18.412 -23.654  0.00  0.00    +0.000 NA
ATOM     17  O   UNL     1     -46.267 -19.240 -25.004  0.00  0.00    +0.000 OA
BRANCH  16  18
ATOM     18  C   UNL     1     -45.051 -19.038 -22.442  0.00  0.00    +0.000 C 
BRANCH  18  19
ATOM     19  C   UNL     1     -45.510 -17.990 -21.491  0.00  0.00    +0.000 A 
ATOM     20  C   UNL     1     -46.014 -18.354 -20.238  0.00  0.00    +0.000 A 
ATOM     21  C   UNL     1     -46.421 -17.369 -19.334  0.00  0.00    +0.000 A 
ATOM     22  C   UNL     1     -46.319 -16.017 -19.679  0.00  0.00    +0.000 A 
ATOM     23  C   UNL     1     -45.810 -15.652 -20.929  0.00  0.00    +0.000 A 
ATOM     24  C   UNL     1     -45.402 -16.638 -21.834  0.00  0.00    +0.000 A 
ATOM     25  F   UNL     1     -45.708 -14.343 -21.263  0.00  0.00    +0.000 F 
ENDBRANCH  18  19
ENDBRANCH  16  18
ENDBRANCH   3  15
TORSDOF 4
ENDMDL
MODEL 2
REMARK VINA RESULT:      -6.2      4.315      5.875
REMARK  Name = ZINC000096180993 ZINC96180993 PubChem-97456961
REMARK  4 active torsions:
REMARK  status: ('A' for Active; 'I' for Inactive)
REMARK    1  A    between atoms: C_2  and  C_14
REMARK    2  A    between atoms: C_3  and  C_6
REMARK    3  A    between atoms: C_7  and  C_8
REMARK    4  A    between atoms: C_7  and  N_21
REMARK                            x       y       z     vdW  Elec       q    Type
REMARK                         _______ _______ _______ _____ _____    ______ ____
ROOT
ATOM      1  C   UNL     1     -41.962 -17.115 -21.356  0.00  0.00    +0.000 C 
ATOM      2  C   UNL     1     -44.308 -18.143 -21.199  0.00  0.00    +0.000 C 
ATOM      3  C   UNL     1     -44.999 -19.049 -20.162  0.00  0.00    +0.000 C 
ATOM      4  C   UNL     1     -43.979 -19.359 -19.059  0.00  0.00    +0.000 C 
ATOM      5  C   UNL     1     -42.751 -18.698 -19.541  0.00  0.00    +0.000 C 
ATOM      6  N   UNL     1     -42.925 -18.035 -20.774  0.00  0.00    +0.000 N 
ATOM      7  O   UNL     1     -41.659 -18.708 -18.913  0.00  0.00    +0.000 OA
ENDROOT
BRANCH   2   8
ATOM      8  C   UNL     1     -44.407 -18.728 -22.575  0.00  0.00    +0.000 A 
ATOM      9  C   UNL     1     -43.600 -19.808 -22.966  0.00  0.00    +0.000 A 
ATOM     10  C   UNL     1     -43.711 -20.336 -24.255  0.00  0.00    +0.000 A 
ATOM     11  C   UNL     1     -44.627 -19.789 -25.158  0.00  0.00    +0.000 A 
ATOM     12  C   UNL     1     -45.433 -18.714 -24.772  0.00  0.00    +0.000 A 
ATOM     13  C   UNL     1     -45.322 -18.184 -23.482  0.00  0.00    +0.000 A 
ATOM     14  F   UNL     1     -44.735 -20.302 -26.407  0.00  0.00    +0.000 F 
ENDBRANCH   2   8
BRANCH   3  15
ATOM     15  C   UNL     1     -46.203 -18.374 -19.594  0.00  0.00    +0.000 C 
ATOM     16  N   UNL     1     -46.118 -17.025 -19.128  0.00  0.00    +0.000 NA
ATOM     17  O   UNL     1     -47.293 -19.002 -19.535  0.00  0.00    +0.000 OA
BRANCH  16  18
ATOM     18  C   UNL     1     -47.266 -16.326 -18.577  0.00  0.00    +0.000 C 
BRANCH  18  19
ATOM     19  C   UNL     1     -47.043 -14.857 -18.660  0.00  0.00    +0.000 A 
ATOM     20  C   UNL     1     -47.603 -14.122 -19.711  0.00  0.00    +0.000 A 
ATOM     21  C   UNL     1     -47.416 -12.738 -19.775  0.00  0.00    +0.000 A 
ATOM     22  C   UNL     1     -46.674 -12.086 -18.785  0.00  0.00    +0.000 A 
ATOM     23  C   UNL     1     -46.119 -12.818 -17.731  0.00  0.00    +0.000 A 
ATOM     24  C   UNL     1     -46.306 -14.203 -17.667  0.00  0.00    +0.000 A 
ATOM     25  F   UNL     1     -45.403 -12.187 -16.770  0.00  0.00    +0.000 F 
ENDBRANCH  18  19
ENDBRANCH  16  18
ENDBRANCH   3  15
TORSDOF 4
ENDMDL
MODEL 3
REMARK VINA RESULT:      -6.1     11.247     14.971
REMARK  Name = ZINC000096180993 ZINC96180993 PubChem-97456961
REMARK  4 active torsions:
REMARK  status: ('A' for Active; 'I' for Inactive)
REMARK    1  A    between atoms: C_2  and  C_14
REMARK    2  A    between atoms: C_3  and  C_6
REMARK    3  A    between atoms: C_7  and  C_8
REMARK    4  A    between atoms: C_7  and  N_21
REMARK                            x       y       z     vdW  Elec       q    Type
REMARK                         _______ _______ _______ _____ _____    ______ ____
ROOT
ATOM      1  C   UNL     1     -44.562  -6.640 -28.157  0.00  0.00    +0.000 C 
ATOM      2  C   UNL     1     -45.578  -5.661 -30.301  0.00  0.00    +0.000 C 
ATOM      3  C   UNL     1     -46.745  -4.693 -30.573  0.00  0.00    +0.000 C 
ATOM      4  C   UNL     1     -47.373  -4.326 -29.222  0.00  0.00    +0.000 C 
ATOM      5  C   UNL     1     -46.606  -5.144 -28.262  0.00  0.00    +0.000 C 
ATOM      6  N   UNL     1     -45.608  -5.930 -28.875  0.00  0.00    +0.000 N 
ATOM      7  O   UNL     1     -46.807  -5.134 -27.018  0.00  0.00    +0.000 OA
ENDROOT
BRANCH   2   8
ATOM      8  C   UNL     1     -45.730  -6.924 -31.092  0.00  0.00    +0.000 A 
ATOM      9  C   UNL     1     -44.639  -7.500 -31.761  0.00  0.00    +0.000 A 
ATOM     10  C   UNL     1     -44.807  -8.679 -32.492  0.00  0.00    +0.000 A 
ATOM     11  C   UNL     1     -46.064  -9.287 -32.559  0.00  0.00    +0.000 A 
ATOM     12  C   UNL     1     -47.153  -8.717 -31.893  0.00  0.00    +0.000 A 
ATOM     13  C   UNL     1     -46.986  -7.537 -31.161  0.00  0.00    +0.000 A 
ATOM     14  F   UNL     1     -46.226 -10.431 -33.267  0.00  0.00    +0.000 F 
ENDBRANCH   2   8
BRANCH   3  15
ATOM     15  C   UNL     1     -46.261  -3.471 -31.280  0.00  0.00    +0.000 C 
ATOM     16  N   UNL     1     -45.957  -3.523 -32.676  0.00  0.00    +0.000 NA
ATOM     17  O   UNL     1     -46.128  -2.397 -30.636  0.00  0.00    +0.000 OA
BRANCH  16  18
ATOM     18  C   UNL     1     -45.492  -2.356 -33.407  0.00  0.00    +0.000 C 
BRANCH  18  19
ATOM     19  C   UNL     1     -44.026  -2.193 -33.208  0.00  0.00    +0.000 A 
ATOM     20  C   UNL     1     -43.144  -3.176 -33.667  0.00  0.00    +0.000 A 
ATOM     21  C   UNL     1     -41.765  -3.010 -33.504  0.00  0.00    +0.000 A 
ATOM     22  C   UNL     1     -41.267  -1.858 -32.887  0.00  0.00    +0.000 A 
ATOM     23  C   UNL     1     -42.148  -0.872 -32.434  0.00  0.00    +0.000 A 
ATOM     24  C   UNL     1     -43.528  -1.037 -32.597  0.00  0.00    +0.000 A 
ATOM     25  F   UNL     1     -41.667   0.246 -31.839  0.00  0.00    +0.000 F 
ENDBRANCH  18  19
ENDBRANCH  16  18
ENDBRANCH   3  15
TORSDOF 4
ENDMDL
