MODEL 1
REMARK VINA RESULT:      -6.1      0.000      0.000
REMARK  Name = ZINC000229790166 PubChem-100856248
REMARK  4 active torsions:
REMARK  status: ('A' for Active; 'I' for Inactive)
REMARK    1  A    between atoms: C_4  and  C_5
REMARK    2  A    between atoms: C_6  and  C_7
REMARK    3  A    between atoms: C_6  and  N_19
REMARK    4  A    between atoms: C_11  and  C_12
REMARK                            x       y       z     vdW  Elec       q    Type
REMARK                         _______ _______ _______ _____ _____    ______ ____
ROOT
ATOM      1  C   UNL     1     -43.164 -14.796 -22.686  0.00  0.00    +0.000 C 
ATOM      2  C   UNL     1     -44.734 -15.314 -24.608  0.00  0.00    +0.000 C 
ATOM      3  C   UNL     1     -45.651 -16.371 -25.077  0.00  0.00    +0.000 C 
ATOM      4  C   UNL     1     -45.732 -17.322 -23.876  0.00  0.00    +0.000 C 
ATOM      5  C   UNL     1     -44.765 -16.799 -22.797  0.00  0.00    +0.000 C 
ATOM      6  N   UNL     1     -44.255 -15.537 -23.300  0.00  0.00    +0.000 N 
ATOM      7  O   UNL     1     -44.397 -14.321 -25.306  0.00  0.00    +0.000 OA
ENDROOT
BRANCH   5   8
ATOM      8  C   UNL     1     -45.470 -16.613 -21.488  0.00  0.00    +0.000 A 
ATOM      9  C   UNL     1     -45.956 -15.347 -21.149  0.00  0.00    +0.000 A 
ATOM     10  C   UNL     1     -46.616 -15.148 -19.932  0.00  0.00    +0.000 A 
ATOM     11  C   UNL     1     -46.790 -16.218 -19.049  0.00  0.00    +0.000 A 
ATOM     12  C   UNL     1     -46.306 -17.487 -19.382  0.00  0.00    +0.000 A 
ATOM     13  C   UNL     1     -45.647 -17.685 -20.599  0.00  0.00    +0.000 A 
ATOM     14  F   UNL     1     -47.430 -16.025 -17.871  0.00  0.00    +0.000 F 
ENDBRANCH   5   8
BRANCH   4  15
ATOM     15  C   UNL     1     -45.370 -18.714 -24.277  0.00  0.00    +0.000 C 
ATOM     16  N   UNL     1     -44.183 -19.324 -23.764  0.00  0.00    +0.000 NA
ATOM     17  O   UNL     1     -46.121 -19.342 -25.069  0.00  0.00    +0.000 OA
BRANCH  16  18
ATOM     18  C   UNL     1     -43.794 -20.676 -24.130  0.00  0.00    +0.000 C 
BRANCH  18  19
ATOM     19  C   UNL     1     -42.419 -20.984 -23.567  0.00  0.00    +0.000 C 
ATOM     20  C   UNL     1     -42.112 -20.042 -22.428  0.00  0.00    +0.000 C 
ATOM     21  C   UNL     1     -41.419 -20.908 -21.421  0.00  0.00    +0.000 C 
ATOM     22  C   UNL     1     -41.412 -22.277 -22.059  0.00  0.00    +0.000 C 
ATOM     23  O   UNL     1     -42.379 -22.298 -23.076  0.00  0.00    +0.000 OA
ENDBRANCH  18  19
ENDBRANCH  16  18
ENDBRANCH   4  15
TORSDOF 4
ENDMDL
MODEL 2
REMARK VINA RESULT:      -6.0      4.507      8.025
REMARK  Name = ZINC000229790166 PubChem-100856248
REMARK  4 active torsions:
REMARK  status: ('A' for Active; 'I' for Inactive)
REMARK    1  A    between atoms: C_4  and  C_5
REMARK    2  A    between atoms: C_6  and  C_7
REMARK    3  A    between atoms: C_6  and  N_19
REMARK    4  A    between atoms: C_11  and  C_12
REMARK                            x       y       z     vdW  Elec       q    Type
REMARK                         _______ _______ _______ _____ _____    ______ ____
ROOT
ATOM      1  C   UNL     1     -40.865 -19.179 -24.701  0.00  0.00    +0.000 C 
ATOM      2  C   UNL     1     -43.034 -20.415 -24.257  0.00  0.00    +0.000 C 
ATOM      3  C   UNL     1     -44.466 -20.365 -24.606  0.00  0.00    +0.000 C 
ATOM      4  C   UNL     1     -44.518 -19.307 -25.716  0.00  0.00    +0.000 C 
ATOM      5  C   UNL     1     -43.100 -18.729 -25.880  0.00  0.00    +0.000 C 
ATOM      6  N   UNL     1     -42.249 -19.510 -25.003  0.00  0.00    +0.000 N 
ATOM      7  O   UNL     1     -42.556 -21.174 -23.372  0.00  0.00    +0.000 OA
ENDROOT
BRANCH   5   8
ATOM      8  C   UNL     1     -42.641 -18.826 -27.304  0.00  0.00    +0.000 A 
ATOM      9  C   UNL     1     -42.147 -17.683 -27.940  0.00  0.00    +0.000 A 
ATOM     10  C   UNL     1     -41.714 -17.747 -29.268  0.00  0.00    +0.000 A 
ATOM     11  C   UNL     1     -41.776 -18.957 -29.964  0.00  0.00    +0.000 A 
ATOM     12  C   UNL     1     -42.270 -20.104 -29.335  0.00  0.00    +0.000 A 
ATOM     13  C   UNL     1     -42.702 -20.039 -28.007  0.00  0.00    +0.000 A 
ATOM     14  F   UNL     1     -41.356 -19.020 -31.251  0.00  0.00    +0.000 F 
ENDBRANCH   5   8
BRANCH   4  15
ATOM     15  C   UNL     1     -45.490 -18.226 -25.373  0.00  0.00    +0.000 C 
ATOM     16  N   UNL     1     -45.083 -16.856 -25.408  0.00  0.00    +0.000 NA
ATOM     17  O   UNL     1     -46.668 -18.535 -25.054  0.00  0.00    +0.000 OA
BRANCH  16  18
ATOM     18  C   UNL     1     -45.997 -15.774 -25.080  0.00  0.00    +0.000 C 
BRANCH  18  19
ATOM     19  C   UNL     1     -45.641 -14.539 -25.887  0.00  0.00    +0.000 C 
ATOM     20  C   UNL     1     -44.985 -14.949 -27.183  0.00  0.00    +0.000 C 
ATOM     21  C   UNL     1     -45.553 -13.996 -28.191  0.00  0.00    +0.000 C 
ATOM     22  C   UNL     1     -46.504 -13.139 -27.388  0.00  0.00    +0.000 C 
ATOM     23  O   UNL     1     -46.798 -13.807 -26.190  0.00  0.00    +0.000 OA
ENDBRANCH  18  19
ENDBRANCH  16  18
ENDBRANCH   4  15
TORSDOF 4
ENDMDL
MODEL 3
REMARK VINA RESULT:      -6.0     13.796     16.955
REMARK  Name = ZINC000229790166 PubChem-100856248
REMARK  4 active torsions:
REMARK  status: ('A' for Active; 'I' for Inactive)
REMARK    1  A    between atoms: C_4  and  C_5
REMARK    2  A    between atoms: C_6  and  C_7
REMARK    3  A    between atoms: C_6  and  N_19
REMARK    4  A    between atoms: C_11  and  C_12
REMARK                            x       y       z     vdW  Elec       q    Type
REMARK                         _______ _______ _______ _____ _____    ______ ____
ROOT
ATOM      1  C   UNL     1     -43.842  -5.673 -34.295  0.00  0.00    +0.000 C 
ATOM      2  C   UNL     1     -46.255  -5.036 -33.848  0.00  0.00    +0.000 C 
ATOM      3  C   UNL     1     -47.084  -4.348 -32.840  0.00  0.00    +0.000 C 
ATOM      4  C   UNL     1     -46.045  -3.717 -31.905  0.00  0.00    +0.000 C 
ATOM      5  C   UNL     1     -44.651  -4.164 -32.382  0.00  0.00    +0.000 C 
ATOM      6  N   UNL     1     -44.871  -4.905 -33.610  0.00  0.00    +0.000 N 
ATOM      7  O   UNL     1     -46.729  -5.689 -34.815  0.00  0.00    +0.000 OA
ENDROOT
BRANCH   5   8
ATOM      8  C   UNL     1     -43.758  -2.983 -32.617  0.00  0.00    +0.000 A 
ATOM      9  C   UNL     1     -42.381  -3.118 -32.413  0.00  0.00    +0.000 A 
ATOM     10  C   UNL     1     -41.528  -2.030 -32.624  0.00  0.00    +0.000 A 
ATOM     11  C   UNL     1     -42.052  -0.803 -33.040  0.00  0.00    +0.000 A 
ATOM     12  C   UNL     1     -43.427  -0.661 -33.246  0.00  0.00    +0.000 A 
ATOM     13  C   UNL     1     -44.280  -1.749 -33.035  0.00  0.00    +0.000 A 
ATOM     14  F   UNL     1     -41.225   0.251 -33.245  0.00  0.00    +0.000 F 
ENDBRANCH   5   8
BRANCH   4  15
ATOM     15  C   UNL     1     -46.277  -4.139 -30.492  0.00  0.00    +0.000 C 
ATOM     16  N   UNL     1     -46.083  -5.502 -30.108  0.00  0.00    +0.000 NA
ATOM     17  O   UNL     1     -46.645  -3.283 -29.645  0.00  0.00    +0.000 OA
BRANCH  16  18
ATOM     18  C   UNL     1     -46.299  -5.956 -28.744  0.00  0.00    +0.000 C 
BRANCH  18  19
ATOM     19  C   UNL     1     -45.128  -6.809 -28.294  0.00  0.00    +0.000 C 
ATOM     20  C   UNL     1     -43.854  -6.294 -28.920  0.00  0.00    +0.000 C 
ATOM     21  C   UNL     1     -42.839  -6.418 -27.824  0.00  0.00    +0.000 C 
ATOM     22  C   UNL     1     -43.626  -6.969 -26.658  0.00  0.00    +0.000 C 
ATOM     23  O   UNL     1     -44.990  -6.748 -26.900  0.00  0.00    +0.000 OA
ENDBRANCH  18  19
ENDBRANCH  16  18
ENDBRANCH   4  15
TORSDOF 4
ENDMDL
