MODEL 1
REMARK VINA RESULT:      -6.9      0.000      0.000
REMARK  Name = ZINC000006760457 MCULE-2101817835 MolPort-002-670-898
REMARK  7 active torsions:
REMARK  status: ('A' for Active; 'I' for Inactive)
REMARK    1  A    between atoms: C_1  and  C_2
REMARK    2  A    between atoms: C_2  and  C_3
REMARK    3  A    between atoms: CA_4  and  C_5
REMARK    4  A    between atoms: CA_4  and  CB_6
REMARK    5  A    between atoms: CA_4  and  N_30
REMARK    6  A    between atoms: CB_6  and  CG_7
REMARK    7  A    between atoms: C_17  and  C_18
REMARK                            x       y       z     vdW  Elec       q    Type
REMARK                         _______ _______ _______ _____ _____    ______ ____
ROOT
ATOM      1  C   UNK A   0     -47.000  -5.541 -28.574  0.00  0.00    +0.000 A 
ATOM      2  C   UNK A   0     -47.436  -4.220 -28.787  0.00  0.00    +0.000 A 
ATOM      3  C   UNK A   0     -47.355  -3.738 -26.507  0.00  0.00    +0.000 A 
ATOM      4  C   UNK A   0     -46.910  -5.059 -26.202  0.00  0.00    +0.000 A 
ATOM      5  C   UNK A   0     -46.660  -5.426 -24.863  0.00  0.00    +0.000 A 
ATOM      6  C   UNK A   0     -46.862  -4.463 -23.877  0.00  0.00    +0.000 A 
ATOM      7  C   UNK A   0     -47.287  -3.200 -24.173  0.00  0.00    +0.000 A 
ATOM      8  C   UNK A   0     -47.061  -3.240 -22.048  0.00  0.00    +0.000 A 
ATOM      9  C   UNK A   0     -46.708  -4.514 -22.506  0.00  0.00    +0.000 A 
ATOM     10  C   UNK A   0     -47.546  -2.796 -25.480  0.00  0.00    +0.000 A 
ATOM     11  C   UNK A   0     -46.733  -5.965 -27.260  0.00  0.00    +0.000 A 
ATOM     12  C   UNK A   0     -46.261  -7.363 -26.994  0.00  0.00    +0.000 C 
ATOM     13  O   UNK A   0     -47.684  -3.812 -29.953  0.00  0.00    +0.000 OA
ATOM     14  O   UNK A   0     -47.592  -3.386 -27.764  0.00  0.00    +0.000 OA
ATOM     15  O   UNK A   0     -47.401  -2.485 -23.081  0.00  0.00    +0.000 OA
ENDROOT
BRANCH   9  16
ATOM     16  C   UNK A   0     -46.256  -5.693 -21.678  0.00  0.00    +0.000 C 
ATOM     17  C   UNK A   0     -46.575  -5.446 -20.215  0.00  0.00    +0.000 C 
ATOM     18  C   UNK A   0     -44.760  -5.888 -21.831  0.00  0.00    +0.000 C 
ATOM     19  C   UNK A   0     -46.952  -6.975 -22.107  0.00  0.00    +0.000 C 
ENDBRANCH   9  16
BRANCH   1  20
ATOM     20  C   UNK A   0     -46.853  -6.484 -29.734  0.00  0.00    +0.000 C 
BRANCH  20  21
ATOM     21  C   UNK A   0     -46.023  -5.868 -30.808  0.00  0.00    +0.000 C 
ATOM     22  O   UNK A   0     -46.400  -5.940 -32.007  0.00  0.00    +0.000 OA
ATOM     23  N   LEU A   1     -44.789  -5.232 -30.469  0.00  0.00    +0.000 NA
BRANCH  23  24
ATOM     24  CA  LEU A   1     -43.922  -4.614 -31.466  0.00  0.00    +0.000 C 
BRANCH  24  25
ATOM     25  C   LEU A   1     -42.462  -4.853 -31.114  0.00  0.00    +0.000 C 
ATOM     26  O   LEU A   1     -42.369  -5.506 -29.884  0.00  0.00    +0.000 OA
ENDBRANCH  24  25
BRANCH  24  27
ATOM     27  CB  LEU A   1     -44.216  -3.119 -31.612  0.00  0.00    +0.000 C 
BRANCH  27  28
ATOM     28  CG  LEU A   1     -44.486  -2.696 -33.052  0.00  0.00    +0.000 C 
ATOM     29  CD1 LEU A   1     -45.977  -2.736 -33.311  0.00  0.00    +0.000 C 
ATOM     30  CD2 LEU A   1     -43.982  -1.286 -33.290  0.00  0.00    +0.000 C 
ENDBRANCH  27  28
ENDBRANCH  24  27
ENDBRANCH  23  24
ENDBRANCH  20  21
ENDBRANCH   1  20
TORSDOF 7
ENDMDL
MODEL 2
REMARK VINA RESULT:      -6.7      1.540      1.907
REMARK  Name = ZINC000006760457 MCULE-2101817835 MolPort-002-670-898
REMARK  7 active torsions:
REMARK  status: ('A' for Active; 'I' for Inactive)
REMARK    1  A    between atoms: C_1  and  C_2
REMARK    2  A    between atoms: C_2  and  C_3
REMARK    3  A    between atoms: CA_4  and  C_5
REMARK    4  A    between atoms: CA_4  and  CB_6
REMARK    5  A    between atoms: CA_4  and  N_30
REMARK    6  A    between atoms: CB_6  and  CG_7
REMARK    7  A    between atoms: C_17  and  C_18
REMARK                            x       y       z     vdW  Elec       q    Type
REMARK                         _______ _______ _______ _____ _____    ______ ____
ROOT
ATOM      1  C   UNK A   0     -46.989  -5.423 -28.136  0.00  0.00    +0.000 A 
ATOM      2  C   UNK A   0     -47.322  -4.113 -28.528  0.00  0.00    +0.000 A 
ATOM      3  C   UNK A   0     -47.310  -3.361 -26.321  0.00  0.00    +0.000 A 
ATOM      4  C   UNK A   0     -46.973  -4.660 -25.838  0.00  0.00    +0.000 A 
ATOM      5  C   UNK A   0     -46.808  -4.875 -24.453  0.00  0.00    +0.000 A 
ATOM      6  C   UNK A   0     -46.988  -3.787 -23.601  0.00  0.00    +0.000 A 
ATOM      7  C   UNK A   0     -47.310  -2.546 -24.068  0.00  0.00    +0.000 A 
ATOM      8  C   UNK A   0     -47.183  -2.339 -21.945  0.00  0.00    +0.000 A 
ATOM      9  C   UNK A   0     -46.899  -3.680 -22.227  0.00  0.00    +0.000 A 
ATOM     10  C   UNK A   0     -47.482  -2.290 -25.425  0.00  0.00    +0.000 A 
ATOM     11  C   UNK A   0     -46.812  -5.698 -26.769  0.00  0.00    +0.000 A 
ATOM     12  C   UNK A   0     -46.450  -7.081 -26.313  0.00  0.00    +0.000 C 
ATOM     13  O   UNK A   0     -47.489  -3.837 -29.746  0.00  0.00    +0.000 OA
ATOM     14  O   UNK A   0     -47.466  -3.152 -27.622  0.00  0.00    +0.000 OA
ATOM     15  O   UNK A   0     -47.423  -1.697 -23.076  0.00  0.00    +0.000 OA
ENDROOT
BRANCH   9  16
ATOM     16  C   UNK A   0     -46.568  -4.774 -21.242  0.00  0.00    +0.000 C 
ATOM     17  C   UNK A   0     -46.453  -4.192 -19.845  0.00  0.00    +0.000 C 
ATOM     18  C   UNK A   0     -45.249  -5.423 -21.616  0.00  0.00    +0.000 C 
ATOM     19  C   UNK A   0     -47.641  -5.850 -21.222  0.00  0.00    +0.000 C 
ENDBRANCH   9  16
BRANCH   1  20
ATOM     20  C   UNK A   0     -46.856  -6.509 -29.166  0.00  0.00    +0.000 C 
BRANCH  20  21
ATOM     21  C   UNK A   0     -45.559  -6.388 -29.890  0.00  0.00    +0.000 C 
ATOM     22  O   UNK A   0     -44.499  -6.789 -29.342  0.00  0.00    +0.000 OA
ATOM     23  N   LEU A   1     -45.527  -5.785 -31.185  0.00  0.00    +0.000 NA
BRANCH  23  24
ATOM     24  CA  LEU A   1     -44.294  -5.626 -31.949  0.00  0.00    +0.000 C 
BRANCH  24  25
ATOM     25  C   LEU A   1     -43.580  -4.348 -31.535  0.00  0.00    +0.000 C 
ATOM     26  O   LEU A   1     -44.504  -3.315 -31.383  0.00  0.00    +0.000 OA
ENDBRANCH  24  25
BRANCH  24  27
ATOM     27  CB  LEU A   1     -44.566  -5.642 -33.456  0.00  0.00    +0.000 C 
BRANCH  27  28
ATOM     28  CG  LEU A   1     -46.007  -5.997 -33.805  0.00  0.00    +0.000 C 
ATOM     29  CD1 LEU A   1     -46.755  -4.733 -34.172  0.00  0.00    +0.000 C 
ATOM     30  CD2 LEU A   1     -46.044  -6.952 -34.981  0.00  0.00    +0.000 C 
ENDBRANCH  27  28
ENDBRANCH  24  27
ENDBRANCH  23  24
ENDBRANCH  20  21
ENDBRANCH   1  20
TORSDOF 7
ENDMDL
MODEL 3
REMARK VINA RESULT:      -6.6      4.475      8.391
REMARK  Name = ZINC000006760457 MCULE-2101817835 MolPort-002-670-898
REMARK  7 active torsions:
REMARK  status: ('A' for Active; 'I' for Inactive)
REMARK    1  A    between atoms: C_1  and  C_2
REMARK    2  A    between atoms: C_2  and  C_3
REMARK    3  A    between atoms: CA_4  and  C_5
REMARK    4  A    between atoms: CA_4  and  CB_6
REMARK    5  A    between atoms: CA_4  and  N_30
REMARK    6  A    between atoms: CB_6  and  CG_7
REMARK    7  A    between atoms: C_17  and  C_18
REMARK                            x       y       z     vdW  Elec       q    Type
REMARK                         _______ _______ _______ _____ _____    ______ ____
ROOT
ATOM      1  C   UNK A   0     -44.765  -7.521 -28.493  0.00  0.00    +0.000 A 
ATOM      2  C   UNK A   0     -43.480  -8.065 -28.668  0.00  0.00    +0.000 A 
ATOM      3  C   UNK A   0     -42.865  -6.356 -30.130  0.00  0.00    +0.000 A 
ATOM      4  C   UNK A   0     -44.145  -5.738 -30.011  0.00  0.00    +0.000 A 
ATOM      5  C   UNK A   0     -44.423  -4.552 -30.722  0.00  0.00    +0.000 A 
ATOM      6  C   UNK A   0     -43.415  -4.026 -31.527  0.00  0.00    +0.000 A 
ATOM      7  C   UNK A   0     -42.192  -4.620 -31.639  0.00  0.00    +0.000 A 
ATOM      8  C   UNK A   0     -42.100  -2.892 -32.892  0.00  0.00    +0.000 A 
ATOM      9  C   UNK A   0     -43.382  -2.903 -32.330  0.00  0.00    +0.000 A 
ATOM     10  C   UNK A   0     -41.875  -5.791 -30.955  0.00  0.00    +0.000 A 
ATOM     11  C   UNK A   0     -45.101  -6.338 -29.176  0.00  0.00    +0.000 A 
ATOM     12  C   UNK A   0     -46.460  -5.725 -29.010  0.00  0.00    +0.000 C 
ATOM     13  O   UNK A   0     -43.151  -9.125 -28.070  0.00  0.00    +0.000 OA
ATOM     14  O   UNK A   0     -42.596  -7.472 -29.464  0.00  0.00    +0.000 OA
ATOM     15  O   UNK A   0     -41.422  -3.939 -32.451  0.00  0.00    +0.000 OA
ENDROOT
BRANCH   9  16
ATOM     16  C   UNK A   0     -44.489  -1.903 -32.554  0.00  0.00    +0.000 C 
ATOM     17  C   UNK A   0     -43.920  -0.628 -33.148  0.00  0.00    +0.000 C 
ATOM     18  C   UNK A   0     -45.163  -1.575 -31.235  0.00  0.00    +0.000 C 
ATOM     19  C   UNK A   0     -45.544  -2.443 -33.507  0.00  0.00    +0.000 C 
ENDBRANCH   9  16
BRANCH   1  20
ATOM     20  C   UNK A   0     -45.766  -8.215 -27.612  0.00  0.00    +0.000 C 
BRANCH  20  21
ATOM     21  C   UNK A   0     -46.517  -9.244 -28.385  0.00  0.00    +0.000 C 
ATOM     22  O   UNK A   0     -47.569  -8.921 -28.996  0.00  0.00    +0.000 OA
ATOM     23  N   LEU A   1     -46.054 -10.596 -28.395  0.00  0.00    +0.000 NA
BRANCH  23  24
ATOM     24  CA  LEU A   1     -46.741 -11.658 -29.122  0.00  0.00    +0.000 C 
BRANCH  24  25
ATOM     25  C   LEU A   1     -47.147 -12.771 -28.169  0.00  0.00    +0.000 C 
ATOM     26  O   LEU A   1     -47.452 -12.237 -26.917  0.00  0.00    +0.000 OA
ENDBRANCH  24  25
BRANCH  24  27
ATOM     27  CB  LEU A   1     -45.879 -12.199 -30.266  0.00  0.00    +0.000 C 
BRANCH  27  28
ATOM     28  CG  LEU A   1     -45.225 -11.102 -31.099  0.00  0.00    +0.000 C 
ATOM     29  CD1 LEU A   1     -43.720 -11.245 -31.017  0.00  0.00    +0.000 C 
ATOM     30  CD2 LEU A   1     -45.653 -11.215 -32.549  0.00  0.00    +0.000 C 
ENDBRANCH  27  28
ENDBRANCH  24  27
ENDBRANCH  23  24
ENDBRANCH  20  21
ENDBRANCH   1  20
TORSDOF 7
ENDMDL
