MODEL 1
REMARK VINA RESULT:      -5.8      0.000      0.000
REMARK  Name = ZINC000019936622 CSC046228778 PubChem-28463439
REMARK  7 active torsions:
REMARK  status: ('A' for Active; 'I' for Inactive)
REMARK    1  A    between atoms: C_5  and  S_21
REMARK    2  A    between atoms: C_8  and  N_20
REMARK    3  A    between atoms: C_10  and  O_27
REMARK    4  A    between atoms: C_11  and  O_26
REMARK    5  A    between atoms: C_13  and  C_14
REMARK    6  A    between atoms: C_14  and  O_25
REMARK    7  A    between atoms: N_20  and  S_21
REMARK                            x       y       z     vdW  Elec       q    Type
REMARK                         _______ _______ _______ _____ _____    ______ ____
ROOT
ATOM      1  N   UNL     1     -45.863 -15.945 -25.304  0.00  0.00    +0.000 NA
ENDROOT
BRANCH   1   2
ATOM      2  C   UNL     1     -45.682 -16.461 -23.979  0.00  0.00    +0.000 A 
ATOM      3  C   UNL     1     -45.799 -15.605 -22.877  0.00  0.00    +0.000 A 
ATOM      4  C   UNL     1     -45.641 -16.067 -21.564  0.00  0.00    +0.000 A 
ATOM      5  C   UNL     1     -45.348 -17.432 -21.348  0.00  0.00    +0.000 A 
ATOM      6  C   UNL     1     -45.229 -18.284 -22.449  0.00  0.00    +0.000 A 
ATOM      7  C   UNL     1     -45.391 -17.825 -23.764  0.00  0.00    +0.000 A 
BRANCH   7   8
ATOM      8  C   UNL     1     -45.249 -18.804 -24.872  0.00  0.00    +0.000 C 
ATOM      9  O   UNL     1     -46.263 -19.444 -25.271  0.00  0.00    +0.000 OA
BRANCH   8  11
ATOM     10  C   UNL     1     -43.893 -19.659 -26.742  0.00  0.00    +0.000 C 
ATOM     11  O   UNL     1     -44.010 -19.024 -25.477  0.00  0.00    +0.000 OA
ENDBRANCH   8  11
ENDBRANCH   7   8
BRANCH   5  13
ATOM     12  C   UNL     1     -45.787 -19.199 -19.630  0.00  0.00    +0.000 C 
ATOM     13  O   UNL     1     -45.167 -18.001 -20.078  0.00  0.00    +0.000 OA
ENDBRANCH   5  13
BRANCH   4  15
ATOM     14  C   UNL     1     -45.939 -13.780 -20.654  0.00  0.00    +0.000 C 
ATOM     15  O   UNL     1     -45.776 -15.183 -20.488  0.00  0.00    +0.000 OA
ENDBRANCH   4  15
ENDBRANCH   1   2
BRANCH   1  16
ATOM     16  S   UNL     1     -44.599 -15.218 -26.242  0.00  0.00    +0.000 S 
ATOM     17  O   UNL     1     -43.504 -14.758 -25.319  0.00  0.00    +0.000 OA
ATOM     18  O   UNL     1     -44.042 -16.234 -27.198  0.00  0.00    +0.000 OA
BRANCH  16  23
ATOM     19  C   UNL     1     -46.955 -10.179 -30.452  0.00  0.00    +0.000 C 
ATOM     20  C   UNL     1     -46.194 -11.712 -28.609  0.00  0.00    +0.000 A 
ATOM     21  C   UNL     1     -46.085 -11.628 -27.248  0.00  0.00    +0.000 A 
ATOM     22  C   UNL     1     -45.609 -12.684 -26.478  0.00  0.00    +0.000 A 
ATOM     23  C   UNL     1     -45.237 -13.862 -27.154  0.00  0.00    +0.000 A 
ATOM     24  C   UNL     1     -45.352 -13.947 -28.563  0.00  0.00    +0.000 A 
ATOM     25  C   UNL     1     -45.837 -12.860 -29.313  0.00  0.00    +0.000 A 
ATOM     26  C   UNL     1     -46.840  -9.802 -27.957  0.00  0.00    +0.000 A 
ATOM     27  N   UNL     1     -46.676 -10.550 -29.074  0.00  0.00    +0.000 N 
ATOM     28  O   UNL     1     -46.487 -10.440 -26.854  0.00  0.00    +0.000 OA
ATOM     29  O   UNL     1     -47.280  -8.622 -27.965  0.00  0.00    +0.000 OA
ENDBRANCH  16  23
ENDBRANCH   1  16
TORSDOF 7
ENDMDL
MODEL 2
REMARK VINA RESULT:      -5.7      1.891      3.458
REMARK  Name = ZINC000019936622 CSC046228778 PubChem-28463439
REMARK  7 active torsions:
REMARK  status: ('A' for Active; 'I' for Inactive)
REMARK    1  A    between atoms: C_5  and  S_21
REMARK    2  A    between atoms: C_8  and  N_20
REMARK    3  A    between atoms: C_10  and  O_27
REMARK    4  A    between atoms: C_11  and  O_26
REMARK    5  A    between atoms: C_13  and  C_14
REMARK    6  A    between atoms: C_14  and  O_25
REMARK    7  A    between atoms: N_20  and  S_21
REMARK                            x       y       z     vdW  Elec       q    Type
REMARK                         _______ _______ _______ _____ _____    ______ ____
ROOT
ATOM      1  N   UNL     1     -43.559 -16.376 -24.564  0.00  0.00    +0.000 NA
ENDROOT
BRANCH   1   2
ATOM      2  C   UNL     1     -43.887 -17.211 -23.446  0.00  0.00    +0.000 A 
ATOM      3  C   UNL     1     -43.375 -18.512 -23.375  0.00  0.00    +0.000 A 
ATOM      4  C   UNL     1     -43.660 -19.359 -22.296  0.00  0.00    +0.000 A 
ATOM      5  C   UNL     1     -44.492 -18.888 -21.255  0.00  0.00    +0.000 A 
ATOM      6  C   UNL     1     -45.004 -17.590 -21.329  0.00  0.00    +0.000 A 
ATOM      7  C   UNL     1     -44.718 -16.739 -22.406  0.00  0.00    +0.000 A 
BRANCH   7   8
ATOM      8  C   UNL     1     -45.303 -15.375 -22.398  0.00  0.00    +0.000 C 
ATOM      9  O   UNL     1     -46.510 -15.213 -22.735  0.00  0.00    +0.000 OA
BRANCH   8  11
ATOM     10  C   UNL     1     -43.399 -14.394 -21.182  0.00  0.00    +0.000 C 
ATOM     11  O   UNL     1     -44.537 -14.269 -22.022  0.00  0.00    +0.000 OA
ENDBRANCH   8  11
ENDBRANCH   7   8
BRANCH   5  13
ATOM     12  C   UNL     1     -44.215 -19.560 -18.860  0.00  0.00    +0.000 C 
ATOM     13  O   UNL     1     -44.844 -19.650 -20.131  0.00  0.00    +0.000 OA
ENDBRANCH   5  13
BRANCH   4  15
ATOM     14  C   UNL     1     -41.736 -20.916 -22.435  0.00  0.00    +0.000 C 
ATOM     15  O   UNL     1     -43.121 -20.650 -22.255  0.00  0.00    +0.000 OA
ENDBRANCH   4  15
ENDBRANCH   1   2
BRANCH   1  16
ATOM     16  S   UNL     1     -44.159 -16.629 -26.171  0.00  0.00    +0.000 S 
ATOM     17  O   UNL     1     -43.024 -17.061 -27.057  0.00  0.00    +0.000 OA
ATOM     18  O   UNL     1     -45.202 -17.710 -26.148  0.00  0.00    +0.000 OA
BRANCH  16  23
ATOM     19  C   UNL     1     -46.699 -10.881 -29.200  0.00  0.00    +0.000 C 
ATOM     20  C   UNL     1     -45.968 -12.795 -27.741  0.00  0.00    +0.000 A 
ATOM     21  C   UNL     1     -46.084 -13.116 -26.416  0.00  0.00    +0.000 A 
ATOM     22  C   UNL     1     -45.552 -14.288 -25.890  0.00  0.00    +0.000 A 
ATOM     23  C   UNL     1     -44.880 -15.150 -26.779  0.00  0.00    +0.000 A 
ATOM     24  C   UNL     1     -44.763 -14.816 -28.150  0.00  0.00    +0.000 A 
ATOM     25  C   UNL     1     -45.313 -13.622 -28.650  0.00  0.00    +0.000 A 
ATOM     26  C   UNL     1     -47.032 -11.269 -26.727  0.00  0.00    +0.000 A 
ATOM     27  N   UNL     1     -46.572 -11.616 -27.952  0.00  0.00    +0.000 N 
ATOM     28  O   UNL     1     -46.744 -12.164 -25.796  0.00  0.00    +0.000 OA
ATOM     29  O   UNL     1     -47.667 -10.206 -26.495  0.00  0.00    +0.000 OA
ENDBRANCH  16  23
ENDBRANCH   1  16
TORSDOF 7
ENDMDL
MODEL 3
REMARK VINA RESULT:      -5.7      1.700      2.057
REMARK  Name = ZINC000019936622 CSC046228778 PubChem-28463439
REMARK  7 active torsions:
REMARK  status: ('A' for Active; 'I' for Inactive)
REMARK    1  A    between atoms: C_5  and  S_21
REMARK    2  A    between atoms: C_8  and  N_20
REMARK    3  A    between atoms: C_10  and  O_27
REMARK    4  A    between atoms: C_11  and  O_26
REMARK    5  A    between atoms: C_13  and  C_14
REMARK    6  A    between atoms: C_14  and  O_25
REMARK    7  A    between atoms: N_20  and  S_21
REMARK                            x       y       z     vdW  Elec       q    Type
REMARK                         _______ _______ _______ _____ _____    ______ ____
ROOT
ATOM      1  N   UNL     1     -43.346 -16.924 -24.728  0.00  0.00    +0.000 NA
ENDROOT
BRANCH   1   2
ATOM      2  C   UNL     1     -44.007 -17.224 -23.491  0.00  0.00    +0.000 A 
ATOM      3  C   UNL     1     -44.716 -16.220 -22.821  0.00  0.00    +0.000 A 
ATOM      4  C   UNL     1     -45.385 -16.470 -21.615  0.00  0.00    +0.000 A 
ATOM      5  C   UNL     1     -45.337 -17.768 -21.060  0.00  0.00    +0.000 A 
ATOM      6  C   UNL     1     -44.627 -18.767 -21.730  0.00  0.00    +0.000 A 
ATOM      7  C   UNL     1     -43.959 -18.522 -22.938  0.00  0.00    +0.000 A 
BRANCH   7   8
ATOM      8  C   UNL     1     -43.232 -19.646 -23.581  0.00  0.00    +0.000 C 
ATOM      9  O   UNL     1     -43.883 -20.544 -24.185  0.00  0.00    +0.000 OA
BRANCH   8  11
ATOM     10  C   UNL     1     -41.041 -19.775 -24.699  0.00  0.00    +0.000 C 
ATOM     11  O   UNL     1     -41.838 -19.720 -23.526  0.00  0.00    +0.000 OA
ENDBRANCH   8  11
ENDBRANCH   7   8
BRANCH   5  13
ATOM     12  C   UNL     1     -46.930 -19.166 -19.728  0.00  0.00    +0.000 C 
ATOM     13  O   UNL     1     -45.967 -18.129 -19.860  0.00  0.00    +0.000 OA
ENDBRANCH   5  13
BRANCH   4  15
ATOM     14  C   UNL     1     -45.524 -14.170 -20.700  0.00  0.00    +0.000 C 
ATOM     15  O   UNL     1     -46.092 -15.443 -20.979  0.00  0.00    +0.000 OA
ENDBRANCH   4  15
ENDBRANCH   1   2
BRANCH   1  16
ATOM     16  S   UNL     1     -44.080 -17.107 -26.288  0.00  0.00    +0.000 S 
ATOM     17  O   UNL     1     -43.058 -17.641 -27.253  0.00  0.00    +0.000 OA
ATOM     18  O   UNL     1     -45.219 -18.081 -26.191  0.00  0.00    +0.000 OA
BRANCH  16  23
ATOM     19  C   UNL     1     -46.091 -11.025 -29.051  0.00  0.00    +0.000 C 
ATOM     20  C   UNL     1     -45.614 -13.099 -27.711  0.00  0.00    +0.000 A 
ATOM     21  C   UNL     1     -45.959 -13.565 -26.472  0.00  0.00    +0.000 A 
ATOM     22  C   UNL     1     -45.519 -14.795 -25.995  0.00  0.00    +0.000 A 
ATOM     23  C   UNL     1     -44.694 -15.560 -26.844  0.00  0.00    +0.000 A 
ATOM     24  C   UNL     1     -44.339 -15.076 -28.126  0.00  0.00    +0.000 A 
ATOM     25  C   UNL     1     -44.801 -13.827 -28.578  0.00  0.00    +0.000 A 
ATOM     26  C   UNL     1     -46.851 -11.683 -26.735  0.00  0.00    +0.000 A 
ATOM     27  N   UNL     1     -46.180 -11.896 -27.891  0.00  0.00    +0.000 N 
ATOM     28  O   UNL     1     -46.725 -12.680 -25.874  0.00  0.00    +0.000 OA
ATOM     29  O   UNL     1     -47.525 -10.646 -26.500  0.00  0.00    +0.000 OA
ENDBRANCH  16  23
ENDBRANCH   1  16
TORSDOF 7
ENDMDL
