REMARK  Name = ZINC000031807936
REMARK  2 active torsions:
REMARK  status: ('A' for Active; 'I' for Inactive)
REMARK    1  A    between atoms: C_1  and  C_27
REMARK    2  A    between atoms: C_24  and  O_31
REMARK                            x       y       z     vdW  Elec       q    Type
REMARK                         _______ _______ _______ _____ _____    ______ ____
ROOT
ATOM      1  C   UNL     1     -47.537  -2.985 -21.788  0.00  0.00    +0.000 C 
ATOM      2  S   UNL     1     -47.286  -3.326 -20.017  0.00  0.00    +0.000 S 
ATOM      3  C   UNL     1     -48.952  -3.996 -19.811  0.00  0.00    +0.000 C 
ATOM      4  C   UNL     1     -49.874  -2.921 -19.373  0.00  0.00    +0.000 C 
ATOM      5  O   UNL     1     -50.452  -3.043 -18.263  0.00  0.00    +0.000 OA
ATOM      6  N   UNL     1     -50.157  -1.772 -20.176  0.00  0.00    +0.000 N 
ATOM      7  C   UNL     1     -49.566  -1.328 -21.409  0.00  0.00    +0.000 A 
ATOM      8  C   UNL     1     -48.471  -1.848 -22.099  0.00  0.00    +0.000 A 
ATOM      9  C   UNL     1     -48.402  -1.072 -23.244  0.00  0.00    +0.000 A 
ATOM     10  C   UNL     1     -47.410  -1.216 -24.345  0.00  0.00    +0.000 C 
ATOM     11  N   UNL     1     -49.380  -0.149 -23.245  0.00  0.00    +0.000 NA
ATOM     12  N   UNL     1     -50.069  -0.296 -22.125  0.00  0.00    +0.000 N 
ATOM     13  H   UNL     1     -50.871  -1.191 -19.828  0.00  0.00    +0.000 HD
ATOM     14  C   UNL     1     -51.213   0.512 -21.811  0.00  0.00    +0.000 A 
ATOM     15  N   UNL     1     -52.098   0.859 -22.793  0.00  0.00    +0.000 NA
ATOM     16  C   UNL     1     -53.184   1.654 -22.532  0.00  0.00    +0.000 A 
ATOM     17  N   UNL     1     -53.402   2.138 -21.272  0.00  0.00    +0.000 NA
ATOM     18  C   UNL     1     -52.518   1.807 -20.301  0.00  0.00    +0.000 A 
ATOM     19  N   UNL     1     -52.533   2.230 -19.031  0.00  0.00    +0.000 N 
ATOM     20  C   UNL     1     -51.407   1.662 -18.520  0.00  0.00    +0.000 A 
ATOM     21  N   UNL     1     -50.706   0.920 -19.420  0.00  0.00    +0.000 NA
ATOM     22  C   UNL     1     -51.444   1.024 -20.534  0.00  0.00    +0.000 A 
ATOM     23  H   UNL     1     -53.193   2.806 -18.581  0.00  0.00    +0.000 HD
ENDROOT
BRANCH   1  27
ATOM     24  C   UNL     1     -48.146  -6.549 -24.139  0.00  0.00    +0.000 A 
ATOM     25  C   UNL     1     -49.212  -5.672 -23.918  0.00  0.00    +0.000 A 
ATOM     26  C   UNL     1     -49.026  -4.512 -23.160  0.00  0.00    +0.000 A 
ATOM     27  C   UNL     1     -47.766  -4.217 -22.618  0.00  0.00    +0.000 A 
ATOM     28  C   UNL     1     -46.701  -5.096 -22.834  0.00  0.00    +0.000 A 
ATOM     29  C   UNL     1     -46.887  -6.256 -23.591  0.00  0.00    +0.000 A 
BRANCH  24  31
ATOM     30  C   UNL     1     -47.370  -8.699 -25.084  0.00  0.00    +0.000 C 
ATOM     31  O   UNL     1     -48.364  -7.700 -24.901  0.00  0.00    +0.000 OA
ENDBRANCH  24  31
ENDBRANCH   1  27
TORSDOF 2
