REMARK  Name = ZINC000096011142 ZINC96011142 CSC027537832 MCULE-9100666836 MolPort-028-801-490 PubChem-75455099
REMARK  4 active torsions:
REMARK  status: ('A' for Active; 'I' for Inactive)
REMARK    1  A    between atoms: C_1  and  C_28
REMARK    2  A    between atoms: C_10  and  C_15
REMARK    3  A    between atoms: N_17  and  C_20
REMARK    4  A    between atoms: C_28  and  O_31
REMARK                            x       y       z     vdW  Elec       q    Type
REMARK                         _______ _______ _______ _____ _____    ______ ____
ROOT
ATOM      1  C   UNL     1     -49.635   1.196 -15.668  0.00  0.00    +0.000 A 
ATOM      2  C   UNL     1     -50.397   2.368 -15.592  0.00  0.00    +0.000 A 
ATOM      3  C   UNL     1     -51.322   2.675 -16.592  0.00  0.00    +0.000 A 
ATOM      4  C   UNL     1     -51.490   1.814 -17.679  0.00  0.00    +0.000 A 
ATOM      5  N   UNL     1     -52.442   2.130 -18.693  0.00  0.00    +0.000 N 
ATOM      6  C   UNL     1     -52.542   1.324 -19.867  0.00  0.00    +0.000 C 
ATOM      7  O   UNL     1     -53.445   1.557 -20.712  0.00  0.00    +0.000 OA
ATOM      8  C   UNL     1     -51.530   0.253 -20.133  0.00  0.00    +0.000 C 
ATOM      9  N   UNL     1     -50.936  -0.260 -18.892  0.00  0.00    +0.000 N 
ATOM     10  C   UNL     1     -50.537  -1.644 -18.828  0.00  0.00    +0.000 C 
ATOM     11  O   UNL     1     -50.635  -2.271 -17.738  0.00  0.00    +0.000 OA
ATOM     12  C   UNL     1     -50.741   0.627 -17.767  0.00  0.00    +0.000 A 
ATOM     13  C   UNL     1     -49.812   0.331 -16.756  0.00  0.00    +0.000 A 
ATOM     14  H   UNL     1     -53.035   2.909 -18.582  0.00  0.00    +0.000 HD
ENDROOT
BRANCH  10  15
ATOM     15  C   UNL     1     -50.018  -2.357 -20.012  0.00  0.00    +0.000 A 
ATOM     16  N   UNL     1     -49.532  -1.752 -21.108  0.00  0.00    +0.000 NA
ATOM     17  N   UNL     1     -49.140  -2.699 -21.942  0.00  0.00    +0.000 N 
ATOM     18  C   UNL     1     -49.360  -3.911 -21.389  0.00  0.00    +0.000 A 
ATOM     19  C   UNL     1     -49.925  -3.732 -20.138  0.00  0.00    +0.000 A 
BRANCH  17  20
ATOM     20  C   UNL     1     -48.555  -2.470 -23.243  0.00  0.00    +0.000 A 
ATOM     21  C   UNL     1     -47.705  -3.451 -23.787  0.00  0.00    +0.000 A 
ATOM     22  C   UNL     1     -47.113  -3.278 -25.038  0.00  0.00    +0.000 A 
ATOM     23  C   UNL     1     -47.360  -2.119 -25.771  0.00  0.00    +0.000 A 
ATOM     24  F   UNL     1     -46.786  -1.949 -26.986  0.00  0.00    +0.000 F 
ATOM     25  C   UNL     1     -48.201  -1.133 -25.253  0.00  0.00    +0.000 A 
ATOM     26  C   UNL     1     -48.801  -1.294 -23.999  0.00  0.00    +0.000 A 
ATOM     27  C   UNL     1     -49.691  -0.196 -23.526  0.00  0.00    +0.000 C 
ENDBRANCH  17  20
ENDBRANCH  10  15
BRANCH   1  28
ATOM     28  C   UNL     1     -48.660   0.877 -14.611  0.00  0.00    +0.000 C 
ATOM     29  O   UNL     1     -48.177  -0.286 -14.528  0.00  0.00    +0.000 OA
BRANCH  28  31
ATOM     30  C   UNL     1     -48.433   1.703 -12.302  0.00  0.00    +0.000 C 
ATOM     31  O   UNL     1     -48.275   1.867 -13.704  0.00  0.00    +0.000 OA
ENDBRANCH  28  31
ENDBRANCH   1  28
TORSDOF 4
