REMARK  Name = ZINC000020924280 ZINC20924280 PubChem-92705263
REMARK  4 active torsions:
REMARK  status: ('A' for Active; 'I' for Inactive)
REMARK    1  A    between atoms: C_5  and  C_8
REMARK    2  A    between atoms: C_12  and  C_13
REMARK    3  A    between atoms: C_15  and  O_24
REMARK    4  A    between atoms: C_17  and  O_23
REMARK                            x       y       z     vdW  Elec       q    Type
REMARK                         _______ _______ _______ _____ _____    ______ ____
ROOT
ATOM      1  C   UNL     1     -51.915  -1.354 -20.697  0.00  0.00    +0.000 C 
ATOM      2  C   UNL     1     -51.613  -2.394 -19.608  0.00  0.00    +0.000 C 
ATOM      3  C   UNL     1     -50.830  -1.787 -18.490  0.00  0.00    +0.000 C 
ATOM      4  C   UNL     1     -51.825   0.417 -19.012  0.00  0.00    +0.000 C 
ATOM      5  C   UNL     1     -52.963   2.689 -19.281  0.00  0.00    +0.000 C 
ATOM      6  O   UNL     1     -50.044  -2.494 -17.808  0.00  0.00    +0.000 OA
ATOM      7  O   UNL     1     -53.441   2.403 -20.412  0.00  0.00    +0.000 OA
ATOM      8  N   UNL     1     -50.999  -0.405 -18.183  0.00  0.00    +0.000 NA
ATOM      9  N   UNL     1     -52.270  -0.039 -20.148  0.00  0.00    +0.000 NA
ATOM     10  N   UNL     1     -52.160   1.736 -18.567  0.00  0.00    +0.000 NA
ENDROOT
BRANCH   1  15
ATOM     11  C   UNL     1     -47.612  -0.976 -24.548  0.00  0.00    +0.000 C 
ATOM     12  C   UNL     1     -48.712  -1.068 -23.553  0.00  0.00    +0.000 A 
ATOM     13  C   UNL     1     -49.926  -1.665 -23.908  0.00  0.00    +0.000 A 
ATOM     14  C   UNL     1     -50.962  -1.751 -22.973  0.00  0.00    +0.000 A 
ATOM     15  C   UNL     1     -50.790  -1.240 -21.681  0.00  0.00    +0.000 A 
ATOM     16  C   UNL     1     -49.569  -0.645 -21.329  0.00  0.00    +0.000 A 
ATOM     17  C   UNL     1     -48.534  -0.558 -22.264  0.00  0.00    +0.000 A 
ENDBRANCH   1  15
BRANCH   5  18
ATOM     18  C   UNL     1     -53.227   4.012 -18.688  0.00  0.00    +0.000 A 
ATOM     19  C   UNL     1     -54.008   4.954 -19.372  0.00  0.00    +0.000 A 
ATOM     20  C   UNL     1     -54.263   6.210 -18.815  0.00  0.00    +0.000 A 
ATOM     21  C   UNL     1     -53.728   6.527 -17.556  0.00  0.00    +0.000 A 
ATOM     22  C   UNL     1     -52.948   5.600 -16.861  0.00  0.00    +0.000 A 
ATOM     23  C   UNL     1     -52.701   4.342 -17.432  0.00  0.00    +0.000 A 
BRANCH  22  25
ATOM     24  C   UNL     1     -51.631   5.071 -14.835  0.00  0.00    +0.000 C 
ATOM     25  O   UNL     1     -52.433   5.951 -15.610  0.00  0.00    +0.000 OA
ENDBRANCH  22  25
BRANCH  20  27
ATOM     26  C   UNL     1     -55.354   8.418 -19.040  0.00  0.00    +0.000 C 
ATOM     27  O   UNL     1     -55.046   7.121 -19.530  0.00  0.00    +0.000 OA
ENDBRANCH  20  27
ENDBRANCH   5  18
TORSDOF 4
