REMARK  Name = ZINC000015693488 ZINC15693488 PubChem-26752795
REMARK  5 active torsions:
REMARK  status: ('A' for Active; 'I' for Inactive)
REMARK    1  A    between atoms: C_1  and  C_19
REMARK    2  A    between atoms: C_12  and  C_15
REMARK    3  A    between atoms: C_19  and  O_21
REMARK    4  A    between atoms: O_21  and  C_22
REMARK    5  A    between atoms: C_22  and  C_29
REMARK                            x       y       z     vdW  Elec       q    Type
REMARK                         _______ _______ _______ _____ _____    ______ ____
ROOT
ATOM      1  C   UNL     1     -49.653  -0.534 -19.158  0.00  0.00    +0.000 C 
ATOM      2  O   UNL     1     -48.566  -0.433 -18.526  0.00  0.00    +0.000 OA
ATOM      3  N   UNL     1     -50.771   0.322 -18.837  0.00  0.00    +0.000 N 
ATOM      4  C   UNL     1     -51.925   0.331 -19.744  0.00  0.00    +0.000 C 
ATOM      5  C   UNL     1     -52.543   1.692 -19.829  0.00  0.00    +0.000 C 
ATOM      6  O   UNL     1     -53.181   2.030 -20.859  0.00  0.00    +0.000 OA
ATOM      7  N   UNL     1     -52.470   2.578 -18.712  0.00  0.00    +0.000 N 
ATOM      8  C   UNL     1     -51.665   2.245 -17.581  0.00  0.00    +0.000 A 
ATOM      9  C   UNL     1     -50.815   1.124 -17.632  0.00  0.00    +0.000 A 
ATOM     10  C   UNL     1     -50.031   0.815 -16.510  0.00  0.00    +0.000 A 
ATOM     11  C   UNL     1     -50.087   1.611 -15.363  0.00  0.00    +0.000 A 
ATOM     12  C   UNL     1     -50.938   2.723 -15.314  0.00  0.00    +0.000 A 
ATOM     13  C   UNL     1     -51.713   3.044 -16.436  0.00  0.00    +0.000 A 
ATOM     14  H   UNL     1     -52.977   3.422 -18.722  0.00  0.00    +0.000 HD
ENDROOT
BRANCH  12  15
ATOM     15  C   UNL     1     -50.954   3.610 -14.103  0.00  0.00    +0.000 C 
ATOM     16  F   UNL     1     -49.749   4.280 -14.011  0.00  0.00    +0.000 F 
ATOM     17  F   UNL     1     -51.142   2.859 -12.956  0.00  0.00    +0.000 F 
ATOM     18  F   UNL     1     -51.980   4.535 -14.197  0.00  0.00    +0.000 F 
ENDBRANCH  12  15
BRANCH   1  19
ATOM     19  C   UNL     1     -49.751  -1.531 -20.276  0.00  0.00    +0.000 C 
ATOM     20  C   UNL     1     -50.035  -2.912 -19.716  0.00  0.00    +0.000 C 
BRANCH  19  21
ATOM     21  O   UNL     1     -48.540  -1.562 -21.023  0.00  0.00    +0.000 OA
BRANCH  21  22
ATOM     22  C   UNL     1     -48.504  -1.389 -22.412  0.00  0.00    +0.000 C 
ATOM     23  O   UNL     1     -48.920  -0.312 -22.919  0.00  0.00    +0.000 OA
BRANCH  22  29
ATOM     24  C   UNL     1     -47.253  -3.487 -26.889  0.00  0.00    +0.000 C 
ATOM     25  C   UNL     1     -47.372  -3.511 -25.401  0.00  0.00    +0.000 A 
ATOM     26  C   UNL     1     -46.957  -4.661 -24.727  0.00  0.00    +0.000 A 
ATOM     27  C   UNL     1     -47.046  -4.734 -23.340  0.00  0.00    +0.000 A 
ATOM     28  C   UNL     1     -47.553  -3.655 -22.618  0.00  0.00    +0.000 A 
ATOM     29  C   UNL     1     -47.980  -2.486 -23.264  0.00  0.00    +0.000 A 
ATOM     30  C   UNL     1     -47.887  -2.412 -24.681  0.00  0.00    +0.000 A 
ATOM     31  C   UNL     1     -48.321  -1.191 -25.433  0.00  0.00    +0.000 C 
ENDBRANCH  22  29
ENDBRANCH  21  22
ENDBRANCH  19  21
ENDBRANCH   1  19
TORSDOF 5
