REMARK  Name = ZINC000096181682 ZINC96181682 PubChem-97457512
REMARK  3 active torsions:
REMARK  status: ('A' for Active; 'I' for Inactive)
REMARK    1  A    between atoms: C_5  and  N_20
REMARK    2  A    between atoms: C_7  and  C_8
REMARK    3  A    between atoms: C_9  and  C_13
REMARK                            x       y       z     vdW  Elec       q    Type
REMARK                         _______ _______ _______ _____ _____    ______ ____
ROOT
ATOM      1  C   UNL     1     -51.798   0.325 -20.566  0.00  0.00    +0.000 C 
ATOM      2  C   UNL     1     -50.261   0.296 -20.455  0.00  0.00    +0.000 C 
ATOM      3  C   UNL     1     -50.720  -1.364 -18.620  0.00  0.00    +0.000 C 
ATOM      4  C   UNL     1     -52.180  -1.262 -18.920  0.00  0.00    +0.000 C 
ATOM      5  C   UNL     1     -48.413  -0.430 -18.903  0.00  0.00    +0.000 C 
ATOM      6  N   UNL     1     -49.805  -0.513 -19.320  0.00  0.00    +0.000 N 
ATOM      7  O   UNL     1     -50.318  -2.145 -17.718  0.00  0.00    +0.000 OA
ATOM      8  O   UNL     1     -52.399  -0.926 -20.274  0.00  0.00    +0.000 OA
ENDROOT
BRANCH   2   9
ATOM      9  C   UNL     1     -49.651  -0.192 -21.735  0.00  0.00    +0.000 A 
ATOM     10  C   UNL     1     -48.839   0.673 -22.477  0.00  0.00    +0.000 A 
ATOM     11  C   UNL     1     -48.254   0.237 -23.669  0.00  0.00    +0.000 A 
ATOM     12  C   UNL     1     -48.477  -1.066 -24.123  0.00  0.00    +0.000 A 
ATOM     13  C   UNL     1     -49.285  -1.935 -23.384  0.00  0.00    +0.000 A 
ATOM     14  C   UNL     1     -49.871  -1.500 -22.192  0.00  0.00    +0.000 A 
ATOM     15  F   UNL     1     -47.910  -1.487 -25.279  0.00  0.00    +0.000 F 
ENDBRANCH   2   9
BRANCH   1  16
ATOM     16  C   UNL     1     -52.434   1.478 -19.844  0.00  0.00    +0.000 C 
ATOM     17  N   UNL     1     -51.973   1.852 -18.538  0.00  0.00    +0.000 NA
ATOM     18  O   UNL     1     -53.392   2.086 -20.390  0.00  0.00    +0.000 OA
BRANCH  17  23
ATOM     19  C   UNL     1     -51.871   4.461 -14.350  0.00  0.00    +0.000 C 
ATOM     20  C   UNL     1     -52.450   4.194 -15.693  0.00  0.00    +0.000 A 
ATOM     21  C   UNL     1     -53.500   4.979 -16.170  0.00  0.00    +0.000 A 
ATOM     22  C   UNL     1     -54.029   4.712 -17.434  0.00  0.00    +0.000 A 
ATOM     23  C   UNL     1     -52.497   2.917 -17.738  0.00  0.00    +0.000 A 
ATOM     24  C   UNL     1     -51.943   3.157 -16.478  0.00  0.00    +0.000 A 
ATOM     25  N   UNL     1     -53.523   3.696 -18.184  0.00  0.00    +0.000 NA
ENDBRANCH  17  23
ENDBRANCH   1  16
TORSDOF 3
