REMARK  Name = ZINC000230157758 PubChem-100900615
REMARK  9 active torsions:
REMARK  status: ('A' for Active; 'I' for Inactive)
REMARK    1  A    between atoms: N_13  and  C_20
REMARK    2  A    between atoms: C_20  and  C_21
REMARK    3  A    between atoms: C_21  and  O_22
REMARK    4  A    between atoms: C_21  and  C_24
REMARK    5  A    between atoms: C_24  and  O_25
REMARK    6  A    between atoms: C_24  and  C_27
REMARK    7  A    between atoms: C_27  and  O_28
REMARK    8  A    between atoms: C_27  and  C_30
REMARK    9  A    between atoms: C_30  and  O_31
REMARK                            x       y       z     vdW  Elec       q    Type
REMARK                         _______ _______ _______ _____ _____    ______ ____
ROOT
ATOM      1  C   UNL     1     -49.297  -0.764 -25.677  0.00  0.00    +0.000 C 
ATOM      2  C   UNL     1     -49.287  -0.609 -24.194  0.00  0.00    +0.000 A 
ATOM      3  C   UNL     1     -50.274   0.181 -23.595  0.00  0.00    +0.000 A 
ATOM      4  C   UNL     1     -50.294   0.348 -22.209  0.00  0.00    +0.000 A 
ATOM      5  C   UNL     1     -51.273   1.132 -21.603  0.00  0.00    +0.000 A 
ATOM      6  C   UNL     1     -51.275   1.287 -20.211  0.00  0.00    +0.000 A 
ATOM      7  C   UNL     1     -50.285   0.644 -19.438  0.00  0.00    +0.000 A 
ATOM      8  N   UNL     1     -49.337  -0.116 -20.060  0.00  0.00    +0.000 NA
ATOM      9  C   UNL     1     -49.317  -0.279 -21.409  0.00  0.00    +0.000 A 
ATOM     10  C   UNL     1     -48.331  -1.067 -22.007  0.00  0.00    +0.000 A 
ATOM     11  C   UNL     1     -48.310  -1.236 -23.396  0.00  0.00    +0.000 A 
ATOM     12  C   UNL     1     -47.241  -2.085 -23.996  0.00  0.00    +0.000 C 
ATOM     13  N   UNL     1     -50.282   0.788 -18.078  0.00  0.00    +0.000 N 
ATOM     14  C   UNL     1     -51.234   1.560 -17.467  0.00  0.00    +0.000 A 
ATOM     15  O   UNL     1     -51.236   1.705 -16.214  0.00  0.00    +0.000 OA
ATOM     16  N   UNL     1     -52.190   2.182 -18.205  0.00  0.00    +0.000 N 
ATOM     17  C   UNL     1     -52.234   2.064 -19.556  0.00  0.00    +0.000 A 
ATOM     18  O   UNL     1     -53.139   2.657 -20.202  0.00  0.00    +0.000 OA
ATOM     19  H   UNL     1     -52.867   2.732 -17.749  0.00  0.00    +0.000 HD
ENDROOT
BRANCH  13  20
ATOM     20  C   UNL     1     -49.264   0.112 -17.271  0.00  0.00    +0.000 C 
BRANCH  20  21
ATOM     21  C   UNL     1     -49.841  -1.137 -16.616  0.00  0.00    +0.000 C 
BRANCH  21  22
ATOM     22  O   UNL     1     -50.060  -2.111 -17.593  0.00  0.00    +0.000 OA
ATOM     23  H   UNL     1     -49.219  -2.336 -18.019  0.00  0.00    +0.000 HD
ENDBRANCH  21  22
BRANCH  21  24
ATOM     24  C   UNL     1     -48.888  -1.675 -15.542  0.00  0.00    +0.000 C 
BRANCH  24  25
ATOM     25  O   UNL     1     -49.002  -3.064 -15.443  0.00  0.00    +0.000 OA
ATOM     26  H   UNL     1     -49.899  -3.295 -15.155  0.00  0.00    +0.000 HD
ENDBRANCH  24  25
BRANCH  24  27
ATOM     27  C   UNL     1     -49.102  -1.044 -14.159  0.00  0.00    +0.000 C 
BRANCH  27  28
ATOM     28  O   UNL     1     -48.448   0.185 -14.077  0.00  0.00    +0.000 OA
ATOM     29  H   UNL     1     -48.832   0.800 -14.722  0.00  0.00    +0.000 HD
ENDBRANCH  27  28
BRANCH  27  30
ATOM     30  C   UNL     1     -50.573  -0.870 -13.796  0.00  0.00    +0.000 C 
BRANCH  30  31
ATOM     31  O   UNL     1     -51.119  -2.091 -13.401  0.00  0.00    +0.000 OA
ATOM     32  H   UNL     1     -51.049  -2.728 -14.129  0.00  0.00    +0.000 HD
ENDBRANCH  30  31
ENDBRANCH  27  30
ENDBRANCH  24  27
ENDBRANCH  21  24
ENDBRANCH  20  21
ENDBRANCH  13  20
TORSDOF 9
