REMARK  Name = ZINC000072242201 ZINC72242201 PubChem-95740415
REMARK  2 active torsions:
REMARK  status: ('A' for Active; 'I' for Inactive)
REMARK    1  A    between atoms: C_7  and  C_8
REMARK    2  A    between atoms: C_11  and  C_12
REMARK                            x       y       z     vdW  Elec       q    Type
REMARK                         _______ _______ _______ _____ _____    ______ ____
ROOT
ATOM      1  C   UNL     1     -51.668  -0.047 -19.985  0.00  0.00    +0.000 C 
ATOM      2  C   UNL     1     -51.975  -1.098 -18.911  0.00  0.00    +0.000 C 
ATOM      3  C   UNL     1     -50.635  -1.567 -18.505  0.00  0.00    +0.000 C 
ATOM      4  C   UNL     1     -50.137   0.099 -20.074  0.00  0.00    +0.000 C 
ATOM      5  C   UNL     1     -48.185  -1.002 -18.825  0.00  0.00    +0.000 C 
ATOM      6  N   UNL     1     -49.589  -0.913 -19.191  0.00  0.00    +0.000 N 
ATOM      7  O   UNL     1     -50.439  -2.447 -17.628  0.00  0.00    +0.000 OA
ENDROOT
BRANCH   1  14
ATOM      8  C   UNL     1     -51.914   5.369 -14.979  0.00  0.00    +0.000 C 
ATOM      9  C   UNL     1     -52.440   4.872 -16.276  0.00  0.00    +0.000 A 
ATOM     10  C   UNL     1     -53.384   5.623 -16.979  0.00  0.00    +0.000 A 
ATOM     11  C   UNL     1     -53.867   5.141 -18.196  0.00  0.00    +0.000 A 
ATOM     12  C   UNL     1     -53.404   3.922 -18.693  0.00  0.00    +0.000 A 
ATOM     13  C   UNL     1     -52.456   3.192 -17.962  0.00  0.00    +0.000 A 
ATOM     14  C   UNL     1     -52.304   1.260 -19.645  0.00  0.00    +0.000 C 
ATOM     15  N   UNL     1     -52.002   3.686 -16.778  0.00  0.00    +0.000 NA
ATOM     16  N   UNL     1     -51.947   1.935 -18.429  0.00  0.00    +0.000 NA
ATOM     17  O   UNL     1     -53.147   1.753 -20.440  0.00  0.00    +0.000 OA
ENDBRANCH   1  14
BRANCH   4  18
ATOM     18  C   UNL     1     -49.660  -0.095 -21.481  0.00  0.00    +0.000 A 
ATOM     19  C   UNL     1     -49.859  -1.309 -22.156  0.00  0.00    +0.000 A 
ATOM     20  C   UNL     1     -49.406  -1.465 -23.469  0.00  0.00    +0.000 A 
ATOM     21  C   UNL     1     -48.755  -0.409 -24.113  0.00  0.00    +0.000 A 
ATOM     22  C   UNL     1     -48.555   0.802 -23.444  0.00  0.00    +0.000 A 
ATOM     23  C   UNL     1     -49.008   0.959 -22.131  0.00  0.00    +0.000 A 
ATOM     24  F   UNL     1     -48.315  -0.560 -25.386  0.00  0.00    +0.000 F 
ENDBRANCH   4  18
TORSDOF 2
