REMARK  Name = ZINC000096117524
REMARK  4 active torsions:
REMARK  status: ('A' for Active; 'I' for Inactive)
REMARK    1  A    between atoms: C_4  and  C_30
REMARK    2  A    between atoms: C_8  and  O_9
REMARK    3  A    between atoms: C_10  and  O_11
REMARK    4  A    between atoms: C_14  and  C_21
REMARK                            x       y       z     vdW  Elec       q    Type
REMARK                         _______ _______ _______ _____ _____    ______ ____
ROOT
ATOM      1  O   UNL     1     -49.098  -2.262 -16.772  0.00  0.00    +0.000 OA
ATOM      2  C   UNL     1     -49.380  -2.394 -17.993  0.00  0.00    +0.000 A 
ATOM      3  C   UNL     1     -49.001  -3.563 -18.640  0.00  0.00    +0.000 A 
ATOM      4  C   UNL     1     -49.310  -3.733 -19.991  0.00  0.00    +0.000 A 
ATOM      5  O   UNL     1     -49.951  -2.768 -20.648  0.00  0.00    +0.000 OA
ATOM      6  C   UNL     1     -50.328  -1.619 -20.086  0.00  0.00    +0.000 A 
ATOM      7  C   UNL     1     -50.071  -1.394 -18.707  0.00  0.00    +0.000 A 
ATOM      8  C   UNL     1     -50.523  -0.204 -18.101  0.00  0.00    +0.000 A 
ATOM      9  C   UNL     1     -51.245   0.729 -18.846  0.00  0.00    +0.000 A 
ATOM     10  C   UNL     1     -51.495   0.517 -20.203  0.00  0.00    +0.000 A 
ATOM     11  C   UNL     1     -50.987  -0.630 -20.858  0.00  0.00    +0.000 A 
ATOM     12  C   UNL     1     -51.297  -0.821 -22.348  0.00  0.00    +0.000 C 
ATOM     13  C   UNL     1     -51.574   0.498 -23.077  0.00  0.00    +0.000 C 
ATOM     14  C   UNL     1     -52.457   1.379 -22.269  0.00  0.00    +0.000 C 
ATOM     15  O   UNL     1     -53.340   2.078 -22.829  0.00  0.00    +0.000 OA
ATOM     16  O   UNL     1     -52.281   1.448 -20.890  0.00  0.00    +0.000 OA
ENDROOT
BRANCH  12  17
ATOM     17  C   UNL     1     -50.241  -1.555 -23.128  0.00  0.00    +0.000 A 
ATOM     18  C   UNL     1     -50.642  -2.604 -23.963  0.00  0.00    +0.000 A 
ATOM     19  C   UNL     1     -49.704  -3.283 -24.744  0.00  0.00    +0.000 A 
ATOM     20  C   UNL     1     -48.357  -2.921 -24.694  0.00  0.00    +0.000 A 
ATOM     21  F   UNL     1     -47.452  -3.590 -25.449  0.00  0.00    +0.000 F 
ATOM     22  C   UNL     1     -47.945  -1.868 -23.868  0.00  0.00    +0.000 A 
ATOM     23  F   UNL     1     -46.637  -1.512 -23.826  0.00  0.00    +0.000 F 
ATOM     24  C   UNL     1     -48.884  -1.176 -23.093  0.00  0.00    +0.000 A 
ATOM     25  F   UNL     1     -48.475  -0.143 -22.314  0.00  0.00    +0.000 F 
ENDBRANCH  12  17
BRANCH   4  26
ATOM     26  C   UNL     1     -48.931  -4.975 -20.694  0.00  0.00    +0.000 A 
ATOM     27  C   UNL     1     -49.363  -5.194 -22.009  0.00  0.00    +0.000 A 
ATOM     28  C   UNL     1     -49.011  -6.365 -22.687  0.00  0.00    +0.000 A 
ATOM     29  C   UNL     1     -48.224  -7.330 -22.054  0.00  0.00    +0.000 A 
ATOM     30  C   UNL     1     -47.790  -7.124 -20.742  0.00  0.00    +0.000 A 
ATOM     31  C   UNL     1     -48.142  -5.953 -20.065  0.00  0.00    +0.000 A 
ENDBRANCH   4  26
BRANCH   8  32
ATOM     32  O   UNL     1     -50.282   0.058 -16.755  0.00  0.00    +0.000 OA
ATOM     33  H   UNL     1     -49.799  -0.556 -16.237  0.00  0.00    +0.000 HD
ENDBRANCH   8  32
BRANCH   9  34
ATOM     34  O   UNL     1     -51.725   1.880 -18.229  0.00  0.00    +0.000 OA
ATOM     35  H   UNL     1     -51.560   2.027 -17.319  0.00  0.00    +0.000 HD
ENDBRANCH   9  34
TORSDOF 4
