REMARK  Name = ZINC000493967022
REMARK  7 active torsions:
REMARK  status: ('A' for Active; 'I' for Inactive)
REMARK    1  A    between atoms: C_2  and  O_25
REMARK    2  A    between atoms: C_5  and  C_6
REMARK    3  A    between atoms: C_7  and  C_8
REMARK    4  A    between atoms: C_9  and  C_10
REMARK    5  A    between atoms: C_9  and  N_28
REMARK    6  A    between atoms: C_12  and  C_13
REMARK    7  A    between atoms: C_17  and  C_18
REMARK                            x       y       z     vdW  Elec       q    Type
REMARK                         _______ _______ _______ _____ _____    ______ ____
ROOT
ATOM      1  C   UNL     1     -52.349   1.414 -19.563  0.00  0.00    +0.000 C 
ATOM      2  O   UNL     1     -53.180   1.921 -20.362  0.00  0.00    +0.000 OA
ATOM      3  N   UNL     1     -52.077   2.039 -18.306  0.00  0.00    +0.000 NA
ENDROOT
BRANCH   1   5
ATOM      4  C   UNL     1     -50.121   0.370 -19.961  0.00  0.00    +0.000 C 
ATOM      5  C   UNL     1     -51.646   0.152 -19.941  0.00  0.00    +0.000 C 
ATOM      6  C   UNL     1     -51.946  -0.958 -18.925  0.00  0.00    +0.000 C 
ATOM      7  C   UNL     1     -50.606  -1.345 -18.441  0.00  0.00    +0.000 C 
ATOM      8  C   UNL     1     -48.186  -0.607 -18.589  0.00  0.00    +0.000 C 
ATOM      9  O   UNL     1     -50.407  -2.230 -17.567  0.00  0.00    +0.000 OA
ATOM     10  N   UNL     1     -49.566  -0.611 -19.048  0.00  0.00    +0.000 N 
BRANCH   4  14
ATOM     11  C   UNL     1     -48.551  -0.091 -23.945  0.00  0.00    +0.000 A 
ATOM     12  C   UNL     1     -48.502   1.147 -23.297  0.00  0.00    +0.000 A 
ATOM     13  C   UNL     1     -49.013   1.288 -22.003  0.00  0.00    +0.000 A 
ATOM     14  C   UNL     1     -49.575   0.191 -21.345  0.00  0.00    +0.000 A 
ATOM     15  C   UNL     1     -49.631  -1.052 -21.992  0.00  0.00    +0.000 A 
ATOM     16  C   UNL     1     -49.121  -1.193 -23.286  0.00  0.00    +0.000 A 
BRANCH  11  18
ATOM     17  C   UNL     1     -48.038  -1.418 -25.970  0.00  0.00    +0.000 C 
ATOM     18  O   UNL     1     -48.029  -0.200 -25.237  0.00  0.00    +0.000 OA
ENDBRANCH  11  18
ENDBRANCH   4  14
ENDBRANCH   1   5
BRANCH   3  19
ATOM     19  C   UNL     1     -52.746   3.259 -17.889  0.00  0.00    +0.000 C 
BRANCH  19  20
ATOM     20  C   UNL     1     -52.229   3.678 -16.558  0.00  0.00    +0.000 A 
ATOM     21  C   UNL     1     -51.083   4.696 -15.076  0.00  0.00    +0.000 A 
ATOM     22  C   UNL     1     -51.872   3.733 -14.479  0.00  0.00    +0.000 A 
ATOM     23  N   UNL     1     -51.312   4.653 -16.402  0.00  0.00    +0.000 NA
ATOM     24  N   UNL     1     -52.595   3.083 -15.408  0.00  0.00    +0.000 NA
BRANCH  22  25
ATOM     25  C   UNL     1     -51.923   3.433 -13.038  0.00  0.00    +0.000 A 
ATOM     26  C   UNL     1     -51.147   4.166 -12.127  0.00  0.00    +0.000 A 
ATOM     27  C   UNL     1     -51.199   3.875 -10.761  0.00  0.00    +0.000 A 
ATOM     28  C   UNL     1     -52.026   2.850 -10.296  0.00  0.00    +0.000 A 
ATOM     29  C   UNL     1     -52.802   2.115 -11.196  0.00  0.00    +0.000 A 
ATOM     30  C   UNL     1     -52.751   2.406 -12.563  0.00  0.00    +0.000 A 
BRANCH  29  31
ATOM     31  C   UNL     1     -53.650   1.060 -10.719  0.00  0.00    +0.000 C 
ATOM     32  N   UNL     1     -54.334   0.208 -10.334  0.00  0.00    +0.000 NA
ENDBRANCH  29  31
ENDBRANCH  22  25
ENDBRANCH  19  20
ENDBRANCH   3  19
TORSDOF 7
