REMARK  Name = ZINC000020135693 ZINC20135693 PubChem-92655552
REMARK  3 active torsions:
REMARK  status: ('A' for Active; 'I' for Inactive)
REMARK    1  A    between atoms: C_5  and  C_8
REMARK    2  A    between atoms: C_12  and  C_13
REMARK    3  A    between atoms: C_17  and  O_22
REMARK                            x       y       z     vdW  Elec       q    Type
REMARK                         _______ _______ _______ _____ _____    ______ ____
ROOT
ATOM      1  C   UNL     1     -51.914  -1.355 -20.697  0.00  0.00    +0.000 C 
ATOM      2  C   UNL     1     -51.612  -2.394 -19.608  0.00  0.00    +0.000 C 
ATOM      3  C   UNL     1     -50.829  -1.787 -18.489  0.00  0.00    +0.000 C 
ATOM      4  C   UNL     1     -51.824   0.417 -19.012  0.00  0.00    +0.000 C 
ATOM      5  C   UNL     1     -52.962   2.689 -19.280  0.00  0.00    +0.000 C 
ATOM      6  O   UNL     1     -50.044  -2.494 -17.808  0.00  0.00    +0.000 OA
ATOM      7  O   UNL     1     -53.441   2.403 -20.412  0.00  0.00    +0.000 OA
ATOM      8  N   UNL     1     -50.999  -0.405 -18.183  0.00  0.00    +0.000 NA
ATOM      9  N   UNL     1     -52.269  -0.039 -20.148  0.00  0.00    +0.000 NA
ATOM     10  N   UNL     1     -52.160   1.736 -18.567  0.00  0.00    +0.000 NA
ENDROOT
BRANCH   1  15
ATOM     11  C   UNL     1     -47.611  -0.976 -24.547  0.00  0.00    +0.000 C 
ATOM     12  C   UNL     1     -48.712  -1.068 -23.553  0.00  0.00    +0.000 A 
ATOM     13  C   UNL     1     -48.533  -0.559 -22.264  0.00  0.00    +0.000 A 
ATOM     14  C   UNL     1     -49.568  -0.645 -21.329  0.00  0.00    +0.000 A 
ATOM     15  C   UNL     1     -50.789  -1.240 -21.681  0.00  0.00    +0.000 A 
ATOM     16  C   UNL     1     -50.961  -1.752 -22.972  0.00  0.00    +0.000 A 
ATOM     17  C   UNL     1     -49.925  -1.665 -23.907  0.00  0.00    +0.000 A 
ENDBRANCH   1  15
BRANCH   5  18
ATOM     18  C   UNL     1     -53.227   4.012 -18.687  0.00  0.00    +0.000 A 
ATOM     19  C   UNL     1     -54.008   4.954 -19.372  0.00  0.00    +0.000 A 
ATOM     20  C   UNL     1     -54.258   6.207 -18.807  0.00  0.00    +0.000 A 
ATOM     21  C   UNL     1     -53.729   6.529 -17.555  0.00  0.00    +0.000 A 
ATOM     22  C   UNL     1     -52.948   5.601 -16.859  0.00  0.00    +0.000 A 
ATOM     23  C   UNL     1     -52.700   4.342 -17.431  0.00  0.00    +0.000 A 
BRANCH  22  25
ATOM     24  C   UNL     1     -51.630   5.071 -14.834  0.00  0.00    +0.000 C 
ATOM     25  O   UNL     1     -52.433   5.952 -15.608  0.00  0.00    +0.000 OA
ENDBRANCH  22  25
ENDBRANCH   5  18
TORSDOF 3
