REMARK  Name = ZINC000020924276 ZINC20924276 PubChem-92705262
REMARK  4 active torsions:
REMARK  status: ('A' for Active; 'I' for Inactive)
REMARK    1  A    between atoms: C_5  and  C_8
REMARK    2  A    between atoms: C_12  and  C_13
REMARK    3  A    between atoms: C_15  and  O_24
REMARK    4  A    between atoms: C_17  and  O_23
REMARK                            x       y       z     vdW  Elec       q    Type
REMARK                         _______ _______ _______ _____ _____    ______ ____
ROOT
ATOM      1  C   UNL     1     -51.915  -1.355 -20.697  0.00  0.00    +0.000 C 
ATOM      2  C   UNL     1     -51.613  -2.394 -19.608  0.00  0.00    +0.000 C 
ATOM      3  C   UNL     1     -50.830  -1.787 -18.489  0.00  0.00    +0.000 C 
ATOM      4  C   UNL     1     -51.825   0.417 -19.012  0.00  0.00    +0.000 C 
ATOM      5  C   UNL     1     -52.962   2.689 -19.280  0.00  0.00    +0.000 C 
ATOM      6  O   UNL     1     -50.045  -2.495 -17.808  0.00  0.00    +0.000 OA
ATOM      7  O   UNL     1     -53.441   2.403 -20.412  0.00  0.00    +0.000 OA
ATOM      8  N   UNL     1     -51.000  -0.405 -18.182  0.00  0.00    +0.000 NA
ATOM      9  N   UNL     1     -52.270  -0.039 -20.148  0.00  0.00    +0.000 NA
ATOM     10  N   UNL     1     -52.161   1.736 -18.567  0.00  0.00    +0.000 NA
ENDROOT
BRANCH   1  15
ATOM     11  C   UNL     1     -47.613  -0.976 -24.548  0.00  0.00    +0.000 C 
ATOM     12  C   UNL     1     -48.713  -1.068 -23.553  0.00  0.00    +0.000 A 
ATOM     13  C   UNL     1     -48.534  -0.559 -22.264  0.00  0.00    +0.000 A 
ATOM     14  C   UNL     1     -49.569  -0.645 -21.329  0.00  0.00    +0.000 A 
ATOM     15  C   UNL     1     -50.791  -1.240 -21.681  0.00  0.00    +0.000 A 
ATOM     16  C   UNL     1     -50.963  -1.751 -22.972  0.00  0.00    +0.000 A 
ATOM     17  C   UNL     1     -49.927  -1.665 -23.907  0.00  0.00    +0.000 A 
ENDBRANCH   1  15
BRANCH   5  18
ATOM     18  C   UNL     1     -53.227   4.012 -18.687  0.00  0.00    +0.000 A 
ATOM     19  C   UNL     1     -52.701   4.343 -17.432  0.00  0.00    +0.000 A 
ATOM     20  C   UNL     1     -52.949   5.601 -16.861  0.00  0.00    +0.000 A 
ATOM     21  C   UNL     1     -53.729   6.529 -17.557  0.00  0.00    +0.000 A 
ATOM     22  C   UNL     1     -54.262   6.215 -18.811  0.00  0.00    +0.000 A 
ATOM     23  C   UNL     1     -54.007   4.954 -19.372  0.00  0.00    +0.000 A 
BRANCH  22  25
ATOM     24  C   UNL     1     -55.616   6.935 -20.751  0.00  0.00    +0.000 C 
ATOM     25  O   UNL     1     -55.037   7.170 -19.475  0.00  0.00    +0.000 OA
ENDBRANCH  22  25
BRANCH  20  27
ATOM     26  C   UNL     1     -51.632   5.071 -14.835  0.00  0.00    +0.000 C 
ATOM     27  O   UNL     1     -52.434   5.952 -15.610  0.00  0.00    +0.000 OA
ENDBRANCH  20  27
ENDBRANCH   5  18
TORSDOF 4
