REMARK  Name = ZINC000013148091 ZINC13148091 PubChem-25726336
REMARK  5 active torsions:
REMARK  status: ('A' for Active; 'I' for Inactive)
REMARK    1  A    between atoms: C_1  and  C_6
REMARK    2  A    between atoms: C_1  and  C_17
REMARK    3  A    between atoms: C_1  and  C_32
REMARK    4  A    between atoms: C_2  and  C_14
REMARK    5  A    between atoms: C_21  and  C_26
REMARK                            x       y       z     vdW  Elec       q    Type
REMARK                         _______ _______ _______ _____ _____    ______ ____
ROOT
ATOM      1  C   UNL     1     -48.161  -2.690 -19.690  0.00  0.00    +0.000 C 
ENDROOT
BRANCH   1   6
ATOM      2  C   UNL     1     -46.843  -3.329 -23.146  0.00  0.00    +0.000 C 
ATOM      3  N   UNL     1     -46.742  -2.101 -22.730  0.00  0.00    +0.000 NA
ATOM      4  C   UNL     1     -46.511  -1.772 -21.356  0.00  0.00    +0.000 C 
ATOM      5  O   UNL     1     -46.162  -0.602 -21.052  0.00  0.00    +0.000 OA
ATOM      6  C   UNL     1     -46.733  -2.793 -20.268  0.00  0.00    +0.000 C 
ATOM      7  C   UNL     1     -46.493  -4.169 -20.830  0.00  0.00    +0.000 C 
ATOM      8  O   UNL     1     -46.170  -5.115 -20.067  0.00  0.00    +0.000 OA
ATOM      9  N   UNL     1     -46.655  -4.413 -22.227  0.00  0.00    +0.000 N 
ATOM     10  H   UNL     1     -46.638  -5.338 -22.564  0.00  0.00    +0.000 HD
BRANCH   2  14
ATOM     11  C   UNL     1     -47.571  -4.144 -27.281  0.00  0.00    +0.000 A 
ATOM     12  C   UNL     1     -47.691  -2.840 -26.796  0.00  0.00    +0.000 A 
ATOM     13  C   UNL     1     -47.449  -2.573 -25.447  0.00  0.00    +0.000 A 
ATOM     14  C   UNL     1     -47.089  -3.607 -24.571  0.00  0.00    +0.000 A 
ATOM     15  C   UNL     1     -46.973  -4.913 -25.067  0.00  0.00    +0.000 A 
ATOM     16  C   UNL     1     -47.211  -5.179 -26.418  0.00  0.00    +0.000 A 
ENDBRANCH   2  14
ENDBRANCH   1   6
BRANCH   1  17
ATOM     17  C   UNL     1     -48.190  -2.368 -18.180  0.00  0.00    +0.000 C 
ATOM     18  C   UNL     1     -49.584  -2.448 -17.634  0.00  0.00    +0.000 C 
ATOM     19  O   UNL     1     -50.186  -3.552 -17.604  0.00  0.00    +0.000 OA
ATOM     20  N   UNL     1     -50.242  -1.271 -17.171  0.00  0.00    +0.000 N 
ATOM     21  C   UNL     1     -49.559  -0.015 -17.088  0.00  0.00    +0.000 C 
ATOM     22  N   UNL     1     -48.294   0.063 -17.382  0.00  0.00    +0.000 NA
ATOM     23  C   UNL     1     -47.527  -1.061 -17.827  0.00  0.00    +0.000 C 
ATOM     24  O   UNL     1     -46.280  -0.947 -17.946  0.00  0.00    +0.000 OA
ATOM     25  H   UNL     1     -51.188  -1.323 -16.901  0.00  0.00    +0.000 HD
BRANCH  21  26
ATOM     26  C   UNL     1     -50.285   1.182 -16.624  0.00  0.00    +0.000 A 
ATOM     27  C   UNL     1     -51.215   1.810 -17.465  0.00  0.00    +0.000 A 
ATOM     28  C   UNL     1     -51.913   2.939 -17.028  0.00  0.00    +0.000 A 
ATOM     29  C   UNL     1     -51.682   3.453 -15.750  0.00  0.00    +0.000 A 
ATOM     30  C   UNL     1     -50.755   2.836 -14.906  0.00  0.00    +0.000 A 
ATOM     31  C   UNL     1     -50.058   1.704 -15.341  0.00  0.00    +0.000 A 
ENDBRANCH  21  26
ENDBRANCH   1  17
BRANCH   1  32
ATOM     32  C   UNL     1     -49.078  -1.800 -20.494  0.00  0.00    +0.000 A 
ATOM     33  C   UNL     1     -48.989  -0.400 -20.418  0.00  0.00    +0.000 A 
ATOM     34  C   UNL     1     -49.846   0.403 -21.173  0.00  0.00    +0.000 A 
ATOM     35  C   UNL     1     -50.798  -0.189 -22.007  0.00  0.00    +0.000 A 
ATOM     36  C   UNL     1     -50.888  -1.581 -22.091  0.00  0.00    +0.000 A 
ATOM     37  C   UNL     1     -50.028  -2.386 -21.338  0.00  0.00    +0.000 A 
ATOM     38 CL   UNL     1     -51.885   0.811 -22.942  0.00  0.00    +0.000 Cl
ENDBRANCH   1  32
TORSDOF 5
