REMARK  Name = ZINC000217755306
REMARK  10 active torsions:
REMARK  status: ('A' for Active; 'I' for Inactive)
REMARK    1  A    between atoms: C_1  and  C_2
REMARK    2  A    between atoms: C_1  and  C_15
REMARK    3  A    between atoms: C_1  and  C_25
REMARK    4  A    between atoms: C_3  and  O_4
REMARK    5  A    between atoms: C_25  and  C_27
REMARK    6  A    between atoms: N_28  and  C_30
REMARK    7  A    between atoms: C_30  and  C_31
REMARK    8  A    between atoms: C_31  and  C_32
REMARK    9  A    between atoms: C_35  and  O_36
REMARK   10  A    between atoms: C_37  and  O_38
REMARK                            x       y       z     vdW  Elec       q    Type
REMARK                         _______ _______ _______ _____ _____    ______ ____
ROOT
ATOM      1  C   UNL     1     -50.352  -0.472 -20.863  0.00  0.00    +0.000 C 
ENDROOT
BRANCH   1   2
ATOM      2  C   UNL     1     -50.556  -1.163 -22.189  0.00  0.00    +0.000 A 
ATOM      3  C   UNL     1     -50.776  -2.544 -22.207  0.00  0.00    +0.000 A 
ATOM      4  N   UNL     1     -50.945  -3.191 -23.386  0.00  0.00    +0.000 NA
ATOM      5  C   UNL     1     -50.905  -2.527 -24.567  0.00  0.00    +0.000 A 
ATOM      6  C   UNL     1     -51.083  -3.238 -25.756  0.00  0.00    +0.000 A 
ATOM      7  C   UNL     1     -51.044  -2.561 -26.973  0.00  0.00    +0.000 A 
ATOM      8  C   UNL     1     -50.829  -1.185 -26.992  0.00  0.00    +0.000 A 
ATOM      9  C   UNL     1     -50.655  -0.503 -25.787  0.00  0.00    +0.000 A 
ATOM     10  N   UNL     1     -50.693  -1.168 -24.593  0.00  0.00    +0.000 N 
ATOM     11  C   UNL     1     -50.520  -0.479 -23.421  0.00  0.00    +0.000 A 
ATOM     12  O   UNL     1     -50.334   0.771 -23.442  0.00  0.00    +0.000 OA
BRANCH   3  13
ATOM     13  O   UNL     1     -50.825  -3.268 -21.021  0.00  0.00    +0.000 OA
ATOM     14  H   UNL     1     -50.709  -2.831 -20.200  0.00  0.00    +0.000 HD
ENDBRANCH   3  13
ENDBRANCH   1   2
BRANCH   1  15
ATOM     15  C   UNL     1     -48.950  -0.621 -20.324  0.00  0.00    +0.000 A 
ATOM     16  C   UNL     1     -47.855  -0.187 -21.081  0.00  0.00    +0.000 A 
ATOM     17  C   UNL     1     -46.561  -0.317 -20.575  0.00  0.00    +0.000 A 
ATOM     18  N   UNL     1     -46.358  -0.862 -19.347  0.00  0.00    +0.000 NA
ATOM     19  C   UNL     1     -47.394  -1.292 -18.579  0.00  0.00    +0.000 A 
ATOM     20  C   UNL     1     -47.144  -1.841 -17.318  0.00  0.00    +0.000 A 
ATOM     21  C   UNL     1     -48.206  -2.280 -16.522  0.00  0.00    +0.000 A 
ATOM     22  C   UNL     1     -49.521  -2.171 -16.983  0.00  0.00    +0.000 A 
ATOM     23  C   UNL     1     -49.779  -1.623 -18.242  0.00  0.00    +0.000 A 
ATOM     24  C   UNL     1     -48.723  -1.180 -19.052  0.00  0.00    +0.000 A 
ENDBRANCH   1  15
BRANCH   1  25
ATOM     25  C   UNL     1     -50.868   0.965 -20.844  0.00  0.00    +0.000 C 
BRANCH  25  27
ATOM     26  O   UNL     1     -53.002   1.004 -19.790  0.00  0.00    +0.000 OA
ATOM     27  C   UNL     1     -51.761   1.186 -19.671  0.00  0.00    +0.000 C 
ATOM     28  N   UNL     1     -51.195   1.557 -18.412  0.00  0.00    +0.000 N 
ATOM     29  H   UNL     1     -50.221   1.683 -18.351  0.00  0.00    +0.000 HD
BRANCH  28  30
ATOM     30  C   UNL     1     -52.002   1.756 -17.218  0.00  0.00    +0.000 C 
BRANCH  30  31
ATOM     31  C   UNL     1     -51.798   3.162 -16.679  0.00  0.00    +0.000 C 
BRANCH  31  32
ATOM     32  C   UNL     1     -51.099   3.123 -15.364  0.00  0.00    +0.000 A 
ATOM     33  C   UNL     1     -50.687   1.904 -14.812  0.00  0.00    +0.000 A 
ATOM     34  C   UNL     1     -50.018   1.880 -13.585  0.00  0.00    +0.000 A 
ATOM     35  C   UNL     1     -49.756   3.075 -12.907  0.00  0.00    +0.000 A 
ATOM     36  C   UNL     1     -50.162   4.296 -13.460  0.00  0.00    +0.000 A 
ATOM     37  C   UNL     1     -50.830   4.318 -14.688  0.00  0.00    +0.000 A 
BRANCH  36  38
ATOM     38  O   UNL     1     -49.904   5.489 -12.797  0.00  0.00    +0.000 OA
ATOM     39  H   UNL     1     -49.456   5.480 -11.973  0.00  0.00    +0.000 HD
ENDBRANCH  36  38
BRANCH  35  40
ATOM     40  O   UNL     1     -49.092   3.042 -11.687  0.00  0.00    +0.000 OA
ATOM     41  H   UNL     1     -48.823   2.222 -11.322  0.00  0.00    +0.000 HD
ENDBRANCH  35  40
ENDBRANCH  31  32
ENDBRANCH  30  31
ENDBRANCH  28  30
ENDBRANCH  25  27
ENDBRANCH   1  25
TORSDOF 10
