REMARK  Name = ZINC000015841380 ZINC15841380 ChemDiv-D468-2065 MCULE-3603103277 MolPort-004-901-220 PubChem-20897503
REMARK  2 active torsions:
REMARK  status: ('A' for Active; 'I' for Inactive)
REMARK    1  A    between atoms: C_10  and  C_14
REMARK    2  A    between atoms: N_16  and  C_18
REMARK                            x       y       z     vdW  Elec       q    Type
REMARK                         _______ _______ _______ _____ _____    ______ ____
ROOT
ATOM      1  C   UNL     1     -45.986  -1.284 -21.492  0.00  0.00    +0.000 C 
ATOM      2  C   UNL     1     -47.366  -0.991 -21.975  0.00  0.00    +0.000 A 
ATOM      3  C   UNL     1     -47.836  -1.489 -23.206  0.00  0.00    +0.000 A 
ATOM      4  C   UNL     1     -46.976  -2.333 -24.084  0.00  0.00    +0.000 C 
ATOM      5  C   UNL     1     -49.137  -1.193 -23.625  0.00  0.00    +0.000 A 
ATOM      6  C   UNL     1     -49.975  -0.404 -22.827  0.00  0.00    +0.000 A 
ATOM      7  C   UNL     1     -51.283  -0.087 -23.215  0.00  0.00    +0.000 A 
ATOM      8  O   UNL     1     -51.757  -0.501 -24.307  0.00  0.00    +0.000 OA
ATOM      9  C   UNL     1     -52.072   0.697 -22.375  0.00  0.00    +0.000 A 
ATOM     10  C   UNL     1     -51.539   1.151 -21.161  0.00  0.00    +0.000 A 
ATOM     11  O   UNL     1     -50.287   0.843 -20.827  0.00  0.00    +0.000 OA
ATOM     12  C   UNL     1     -49.502   0.094 -21.595  0.00  0.00    +0.000 A 
ATOM     13  C   UNL     1     -48.202  -0.202 -21.178  0.00  0.00    +0.000 A 
ENDROOT
BRANCH  10  14
ATOM     14  C   UNL     1     -52.358   1.985 -20.258  0.00  0.00    +0.000 C 
ATOM     15  O   UNL     1     -53.408   2.526 -20.696  0.00  0.00    +0.000 OA
ATOM     16  N   UNL     1     -51.958   2.253 -18.907  0.00  0.00    +0.000 N 
ATOM     17  H   UNL     1     -52.187   3.138 -18.541  0.00  0.00    +0.000 HD
BRANCH  16  18
ATOM     18  C   UNL     1     -51.258   1.353 -18.040  0.00  0.00    +0.000 A 
ATOM     19  C   UNL     1     -51.056   0.006 -18.395  0.00  0.00    +0.000 A 
ATOM     20  C   UNL     1     -50.390  -0.843 -17.513  0.00  0.00    +0.000 A 
ATOM     21  N   UNL     1     -50.146  -2.146 -17.794  0.00  0.00    +0.000 NA
ATOM     22  S   UNL     1     -49.356  -2.592 -16.409  0.00  0.00    +0.000 S 
ATOM     23  N   UNL     1     -49.293  -1.242 -15.454  0.00  0.00    +0.000 NA
ATOM     24  C   UNL     1     -49.933  -0.357 -16.258  0.00  0.00    +0.000 A 
ATOM     25  C   UNL     1     -50.151   0.971 -15.896  0.00  0.00    +0.000 A 
ATOM     26  C   UNL     1     -50.819   1.820 -16.790  0.00  0.00    +0.000 A 
ENDBRANCH  16  18
ENDBRANCH  10  14
TORSDOF 2
