REMARK  Name = ZINC000063474270 CSC027367595 MCULE-3459856010 MolPort-020-069-293
REMARK  4 active torsions:
REMARK  status: ('A' for Active; 'I' for Inactive)
REMARK    1  A    between atoms: C_1  and  C_24
REMARK    2  A    between atoms: C_9  and  C_10
REMARK    3  A    between atoms: C_24  and  S_25
REMARK    4  A    between atoms: S_25  and  C_29
REMARK                            x       y       z     vdW  Elec       q    Type
REMARK                         _______ _______ _______ _____ _____    ______ ____
ROOT
ATOM      1  C   UNL     1     -49.352  -2.019 -22.384  0.00  0.00    +0.000 A 
ATOM      2  C   UNL     1     -48.946  -2.603 -23.563  0.00  0.00    +0.000 A 
ATOM      3  C   UNL     1     -47.891  -1.863 -24.025  0.00  0.00    +0.000 A 
ATOM      4  C   UNL     1     -47.228  -2.186 -25.207  0.00  0.00    +0.000 A 
ATOM      5  C   UNL     1     -47.682  -3.310 -25.921  0.00  0.00    +0.000 A 
ATOM      6  C   UNL     1     -48.770  -4.074 -25.444  0.00  0.00    +0.000 A 
ATOM      7  C   UNL     1     -49.419  -3.723 -24.246  0.00  0.00    +0.000 A 
ATOM      8  O   UNL     1     -47.633  -0.867 -23.213  0.00  0.00    +0.000 OA
ATOM      9  C   UNL     1     -48.499  -0.922 -22.215  0.00  0.00    +0.000 A 
ENDROOT
BRANCH   9  10
ATOM     10  C   UNL     1     -48.495   0.053 -21.108  0.00  0.00    +0.000 C 
ATOM     11  N   UNL     1     -49.707   0.667 -20.638  0.00  0.00    +0.000 N 
ATOM     12  C   UNL     1     -49.979   0.834 -19.227  0.00  0.00    +0.000 A 
ATOM     13  C   UNL     1     -51.265   1.229 -18.814  0.00  0.00    +0.000 A 
ATOM     14  C   UNL     1     -51.561   1.359 -17.454  0.00  0.00    +0.000 A 
ATOM     15  C   UNL     1     -50.578   1.104 -16.495  0.00  0.00    +0.000 A 
ATOM     16  C   UNL     1     -49.298   0.712 -16.894  0.00  0.00    +0.000 A 
ATOM     17  C   UNL     1     -49.002   0.573 -18.253  0.00  0.00    +0.000 A 
ATOM     18  N   UNL     1     -52.281   1.471 -19.786  0.00  0.00    +0.000 N 
ATOM     19  C   UNL     1     -51.971   1.448 -21.178  0.00  0.00    +0.000 C 
ATOM     20  O   UNL     1     -52.891   1.574 -22.027  0.00  0.00    +0.000 OA
ATOM     21  C   UNL     1     -50.547   1.346 -21.632  0.00  0.00    +0.000 C 
ATOM     22  O   UNL     1     -47.390   0.375 -20.594  0.00  0.00    +0.000 OA
ATOM     23  H   UNL     1     -53.203   1.656 -19.493  0.00  0.00    +0.000 HD
ENDBRANCH   9  10
BRANCH   1  24
ATOM     24  C   UNL     1     -50.448  -2.489 -21.480  0.00  0.00    +0.000 C 
BRANCH  24  25
ATOM     25  S   UNL     1     -50.098  -4.154 -20.838  0.00  0.00    +0.000 S 
BRANCH  25  29
ATOM     26  C   UNL     1     -47.514  -2.605 -16.108  0.00  0.00    +0.000 C 
ATOM     27  C   UNL     1     -48.434  -2.914 -17.233  0.00  0.00    +0.000 A 
ATOM     28  S   UNL     1     -47.958  -3.557 -18.713  0.00  0.00    +0.000 S 
ATOM     29  C   UNL     1     -49.554  -3.544 -19.249  0.00  0.00    +0.000 A 
ATOM     30  N   UNL     1     -50.393  -3.065 -18.305  0.00  0.00    +0.000 NA
ATOM     31  N   UNL     1     -49.768  -2.712 -17.183  0.00  0.00    +0.000 NA
ENDBRANCH  25  29
ENDBRANCH  24  25
ENDBRANCH   1  24
TORSDOF 4
