REMARK  Name = ZINC000020530876 ZINC20530876 PubChem-92688294
REMARK  7 active torsions:
REMARK  status: ('A' for Active; 'I' for Inactive)
REMARK    1  A    between atoms: C_2  and  O_23
REMARK    2  A    between atoms: C_5  and  C_9
REMARK    3  A    between atoms: C_7  and  O_24
REMARK    4  A    between atoms: C_11  and  C_14
REMARK    5  A    between atoms: C_17  and  O_29
REMARK    6  A    between atoms: C_18  and  O_28
REMARK    7  A    between atoms: C_19  and  O_27
REMARK                            x       y       z     vdW  Elec       q    Type
REMARK                         _______ _______ _______ _____ _____    ______ ____
ROOT
ATOM      1  C   UNL     1     -52.889   2.680 -19.326  0.00  0.00    +0.000 C 
ATOM      2  C   UNL     1     -51.655   0.468 -18.988  0.00  0.00    +0.000 C 
ATOM      3  C   UNL     1     -51.193  -1.116 -20.790  0.00  0.00    +0.000 C 
ATOM      4  C   UNL     1     -51.077  -2.251 -19.762  0.00  0.00    +0.000 C 
ATOM      5  C   UNL     1     -50.658  -1.726 -18.425  0.00  0.00    +0.000 C 
ATOM      6  O   UNL     1     -53.154   2.437 -20.535  0.00  0.00    +0.000 OA
ATOM      7  O   UNL     1     -50.035  -2.466 -17.622  0.00  0.00    +0.000 OA
ATOM      8  N   UNL     1     -52.182   1.718 -18.528  0.00  0.00    +0.000 NA
ATOM      9  N   UNL     1     -51.787   0.104 -20.231  0.00  0.00    +0.000 NA
ATOM     10  N   UNL     1     -50.992  -0.389 -18.056  0.00  0.00    +0.000 NA
ENDROOT
BRANCH   1  14
ATOM     11  C   UNL     1     -54.077   6.415 -17.585  0.00  0.00    +0.000 A 
ATOM     12  C   UNL     1     -54.347   6.141 -18.936  0.00  0.00    +0.000 A 
ATOM     13  C   UNL     1     -53.964   4.924 -19.502  0.00  0.00    +0.000 A 
ATOM     14  C   UNL     1     -53.305   3.961 -18.729  0.00  0.00    +0.000 A 
ATOM     15  C   UNL     1     -53.036   4.233 -17.382  0.00  0.00    +0.000 A 
ATOM     16  C   UNL     1     -53.416   5.454 -16.804  0.00  0.00    +0.000 A 
BRANCH  11  18
ATOM     17  C   UNL     1     -55.099   8.665 -17.730  0.00  0.00    +0.000 C 
ATOM     18  O   UNL     1     -54.453   7.630 -17.002  0.00  0.00    +0.000 OA
ENDBRANCH  11  18
BRANCH  16  20
ATOM     19  C   UNL     1     -52.492   4.814 -14.598  0.00  0.00    +0.000 C 
ATOM     20  O   UNL     1     -53.148   5.734 -15.459  0.00  0.00    +0.000 OA
ENDBRANCH  16  20
ENDBRANCH   1  14
BRANCH   3  21
ATOM     21  C   UNL     1     -49.883  -0.818 -21.470  0.00  0.00    +0.000 A 
ATOM     22  C   UNL     1     -48.830  -0.336 -20.685  0.00  0.00    +0.000 A 
ATOM     23  C   UNL     1     -47.584  -0.081 -21.242  0.00  0.00    +0.000 A 
ATOM     24  C   UNL     1     -47.358  -0.308 -22.601  0.00  0.00    +0.000 A 
ATOM     25  C   UNL     1     -48.394  -0.787 -23.418  0.00  0.00    +0.000 A 
ATOM     26  C   UNL     1     -49.683  -1.030 -22.863  0.00  0.00    +0.000 A 
BRANCH  26  28
ATOM     27  C   UNL     1     -52.098  -1.408 -23.455  0.00  0.00    +0.000 C 
ATOM     28  O   UNL     1     -50.704  -1.485 -23.716  0.00  0.00    +0.000 OA
ENDBRANCH  26  28
BRANCH  25  30
ATOM     29  C   UNL     1     -48.977  -1.487 -25.761  0.00  0.00    +0.000 C 
ATOM     30  O   UNL     1     -48.083  -0.995 -24.774  0.00  0.00    +0.000 OA
ENDBRANCH  25  30
BRANCH  24  32
ATOM     31  C   UNL     1     -44.990   0.397 -22.411  0.00  0.00    +0.000 C 
ATOM     32  O   UNL     1     -46.101  -0.066 -23.168  0.00  0.00    +0.000 OA
ENDBRANCH  24  32
ENDBRANCH   3  21
TORSDOF 7
