REMARK  Name = ZINC000100138715
REMARK  4 active torsions:
REMARK  status: ('A' for Active; 'I' for Inactive)
REMARK    1  A    between atoms: C_1  and  C_13
REMARK    2  A    between atoms: C_6  and  C_21
REMARK    3  A    between atoms: C_16  and  O_17
REMARK    4  A    between atoms: C_21  and  C_22
REMARK                            x       y       z     vdW  Elec       q    Type
REMARK                         _______ _______ _______ _____ _____    ______ ____
ROOT
ATOM      1  C   UNL     1     -46.687  -3.787 -19.064  0.00  0.00    +0.000 C 
ATOM      2  C   UNL     1     -45.306  -3.306 -18.653  0.00  0.00    +0.000 C 
ATOM      3  C   UNL     1     -45.488  -1.918 -18.050  0.00  0.00    +0.000 C 
ATOM      4  C   UNL     1     -46.973  -1.746 -17.788  0.00  0.00    +0.000 C 
ATOM      5  N   UNL     1     -47.619  -2.874 -18.428  0.00  0.00    +0.000 N 
ATOM      6  C   UNL     1     -49.042  -3.044 -18.469  0.00  0.00    +0.000 C 
ATOM      7  O   UNL     1     -49.536  -4.156 -18.797  0.00  0.00    +0.000 OA
ENDROOT
BRANCH   1  13
ATOM      8  C   UNL     1     -47.082  -4.694 -26.308  0.00  0.00    +0.000 C 
ATOM      9  C   UNL     1     -47.137  -4.043 -24.967  0.00  0.00    +0.000 A 
ATOM     10  N   UNL     1     -46.828  -4.785 -23.863  0.00  0.00    +0.000 NA
ATOM     11  C   UNL     1     -46.874  -4.201 -22.642  0.00  0.00    +0.000 A 
ATOM     12  C   UNL     1     -46.606  -4.785 -21.421  0.00  0.00    +0.000 A 
ATOM     13  C   UNL     1     -46.828  -3.712 -20.553  0.00  0.00    +0.000 A 
ATOM     14  N   UNL     1     -47.196  -2.590 -21.218  0.00  0.00    +0.000 NA
ATOM     15  N   UNL     1     -47.217  -2.919 -22.494  0.00  0.00    +0.000 N 
ATOM     16  C   UNL     1     -47.539  -2.122 -23.540  0.00  0.00    +0.000 A 
ATOM     17  C   UNL     1     -47.505  -2.679 -24.830  0.00  0.00    +0.000 A 
ATOM     18  C   UNL     1     -47.856  -1.844 -26.019  0.00  0.00    +0.000 C 
BRANCH  16  19
ATOM     19  O   UNL     1     -47.891  -0.791 -23.335  0.00  0.00    +0.000 OA
ATOM     20  H   UNL     1     -47.908  -0.440 -22.467  0.00  0.00    +0.000 HD
ENDBRANCH  16  19
ENDBRANCH   1  13
BRANCH   6  21
ATOM     21  C   UNL     1     -49.952  -1.887 -18.221  0.00  0.00    +0.000 C 
BRANCH  21  22
ATOM     22  C   UNL     1     -50.351  -1.278 -19.530  0.00  0.00    +0.000 A 
ATOM     23  N   UNL     1     -50.129  -1.975 -20.677  0.00  0.00    +0.000 NA
ATOM     24  N   UNL     1     -50.508  -1.511 -21.869  0.00  0.00    +0.000 N 
ATOM     25  C   UNL     1     -51.142  -0.317 -22.001  0.00  0.00    +0.000 A 
ATOM     26  O   UNL     1     -51.498   0.075 -23.145  0.00  0.00    +0.000 OA
ATOM     27  C   UNL     1     -51.401   0.455 -20.861  0.00  0.00    +0.000 A 
ATOM     28  C   UNL     1     -52.058   1.691 -20.951  0.00  0.00    +0.000 A 
ATOM     29  C   UNL     1     -52.313   2.437 -19.797  0.00  0.00    +0.000 A 
ATOM     30  C   UNL     1     -51.917   1.954 -18.548  0.00  0.00    +0.000 A 
ATOM     31  C   UNL     1     -51.264   0.723 -18.448  0.00  0.00    +0.000 A 
ATOM     32  C   UNL     1     -51.000  -0.035 -19.599  0.00  0.00    +0.000 A 
ATOM     33  H   UNL     1     -50.322  -2.047 -22.673  0.00  0.00    +0.000 HD
ENDBRANCH  21  22
ENDBRANCH   6  21
TORSDOF 4
