REMARK  Name = ZINC000009305088 CHEMBL1468769 CSC026749162 MCULE-2734999692 MolPort-000-208-662 PubChem-1077467
REMARK  6 active torsions:
REMARK  status: ('A' for Active; 'I' for Inactive)
REMARK    1  A    between atoms: N_3  and  C_27
REMARK    2  A    between atoms: C_7  and  C_18
REMARK    3  A    between atoms: N_20  and  C_22
REMARK    4  A    between atoms: C_27  and  C_28
REMARK    5  A    between atoms: C_28  and  C_29
REMARK    6  A    between atoms: C_29  and  N_30
REMARK                            x       y       z     vdW  Elec       q    Type
REMARK                         _______ _______ _______ _____ _____    ______ ____
ROOT
ATOM      1  N   UNL     1     -48.414   0.095 -17.407  0.00  0.00    +0.000 NA
ATOM      2  C   UNL     1     -48.841   0.040 -18.629  0.00  0.00    +0.000 A 
ATOM      3  N   UNL     1     -48.043  -0.513 -19.604  0.00  0.00    +0.000 N 
ATOM      4  C   UNL     1     -48.454  -0.558 -20.911  0.00  0.00    +0.000 A 
ATOM      5  C   UNL     1     -49.711  -0.052 -21.275  0.00  0.00    +0.000 A 
ATOM      6  C   UNL     1     -50.531   0.497 -20.294  0.00  0.00    +0.000 A 
ATOM      7  C   UNL     1     -50.119   0.554 -18.960  0.00  0.00    +0.000 A 
ATOM      8  C   UNL     1     -50.109  -0.117 -22.618  0.00  0.00    +0.000 A 
ATOM      9  O   UNL     1     -51.240   0.335 -22.960  0.00  0.00    +0.000 OA
ATOM     10  N   UNL     1     -49.272  -0.668 -23.551  0.00  0.00    +0.000 N 
ATOM     11  C   UNL     1     -49.659  -0.734 -24.861  0.00  0.00    +0.000 A 
ATOM     12  C   UNL     1     -48.821  -1.293 -25.828  0.00  0.00    +0.000 A 
ATOM     13  C   UNL     1     -47.576  -1.789 -25.448  0.00  0.00    +0.000 A 
ATOM     14  C   UNL     1     -47.182  -1.721 -24.113  0.00  0.00    +0.000 A 
ATOM     15  C   UNL     1     -48.042  -1.156 -23.169  0.00  0.00    +0.000 A 
ATOM     16  N   UNL     1     -47.653  -1.094 -21.871  0.00  0.00    +0.000 NA
ATOM     17  H   UNL     1     -47.525  -0.263 -17.179  0.00  0.00    +0.000 HD
ENDROOT
BRANCH   7  18
ATOM     18  C   UNL     1     -51.054   1.148 -17.968  0.00  0.00    +0.000 C 
ATOM     19  O   UNL     1     -52.298   1.002 -18.121  0.00  0.00    +0.000 OA
ATOM     20  N   UNL     1     -50.568   1.869 -16.831  0.00  0.00    +0.000 N 
ATOM     21  H   UNL     1     -49.594   1.948 -16.705  0.00  0.00    +0.000 HD
BRANCH  20  22
ATOM     22  C   UNL     1     -51.449   2.490 -15.853  0.00  0.00    +0.000 C 
ATOM     23  C   UNL     1     -51.984   3.807 -16.394  0.00  0.00    +0.000 C 
ATOM     24  C   UNL     1     -51.325   4.903 -15.587  0.00  0.00    +0.000 C 
ATOM     25  C   UNL     1     -50.962   4.262 -14.269  0.00  0.00    +0.000 C 
ATOM     26  C   UNL     1     -50.656   2.819 -14.601  0.00  0.00    +0.000 C 
ENDBRANCH  20  22
ENDBRANCH   7  18
BRANCH   3  27
ATOM     27  C   UNL     1     -46.741  -1.087 -19.244  0.00  0.00    +0.000 C 
BRANCH  27  28
ATOM     28  C   UNL     1     -46.920  -2.462 -18.619  0.00  0.00    +0.000 C 
BRANCH  28  29
ATOM     29  C   UNL     1     -46.895  -3.546 -19.695  0.00  0.00    +0.000 C 
BRANCH  29  30
ATOM     30  N   UNL     1     -47.959  -4.546 -19.547  0.00  0.00    +0.000 NA
ATOM     31  C   UNL     1     -49.119  -4.033 -18.798  0.00  0.00    +0.000 C 
ATOM     32  C   UNL     1     -50.153  -3.377 -19.720  0.00  0.00    +0.000 C 
ATOM     33  O   UNL     1     -50.528  -4.276 -20.729  0.00  0.00    +0.000 OA
ATOM     34  C   UNL     1     -49.410  -4.401 -21.565  0.00  0.00    +0.000 C 
ATOM     35  C   UNL     1     -48.305  -5.171 -20.835  0.00  0.00    +0.000 C 
ENDBRANCH  29  30
ENDBRANCH  28  29
ENDBRANCH  27  28
ENDBRANCH   3  27
TORSDOF 6
