REMARK  Name = ZINC000018195880 ZINC18195880
REMARK  2 active torsions:
REMARK  status: ('A' for Active; 'I' for Inactive)
REMARK    1  A    between atoms: C_6  and  C_21
REMARK    2  A    between atoms: C_11  and  O_12
REMARK                            x       y       z     vdW  Elec       q    Type
REMARK                         _______ _______ _______ _____ _____    ______ ____
ROOT
ATOM      1  C   UNL     1     -47.221  -1.950 -24.639  0.00  0.00    +0.000 C 
ATOM      2  C   UNL     1     -47.916  -1.642 -23.330  0.00  0.00    +0.000 C 
ATOM      3  C   UNL     1     -49.122  -0.745 -23.617  0.00  0.00    +0.000 C 
ATOM      4  C   UNL     1     -49.748  -0.158 -22.378  0.00  0.00    +0.000 C 
ATOM      5  C   UNL     1     -49.033   0.009 -21.226  0.00  0.00    +0.000 C 
ATOM      6  C   UNL     1     -49.671   0.554 -19.942  0.00  0.00    +0.000 C 
ATOM      7  C   UNL     1     -51.033   1.123 -20.200  0.00  0.00    +0.000 A 
ATOM      8  C   UNL     1     -51.697   0.955 -21.368  0.00  0.00    +0.000 A 
ATOM      9  N   UNL     1     -52.922   1.506 -21.319  0.00  0.00    +0.000 N 
ATOM     10  N   UNL     1     -53.064   2.031 -20.105  0.00  0.00    +0.000 NA
ATOM     11  C   UNL     1     -51.927   1.803 -19.412  0.00  0.00    +0.000 A 
ATOM     12  N   UNL     1     -51.111   0.294 -22.481  0.00  0.00    +0.000 N 
ATOM     13  C   UNL     1     -47.600  -0.374 -21.192  0.00  0.00    +0.000 C 
ATOM     14  O   UNL     1     -46.917  -0.191 -20.151  0.00  0.00    +0.000 OA
ATOM     15  C   UNL     1     -46.927  -0.932 -22.409  0.00  0.00    +0.000 C 
ATOM     16  C   UNL     1     -48.370  -2.955 -22.710  0.00  0.00    +0.000 C 
ATOM     17  H   UNL     1     -53.588   1.519 -22.044  0.00  0.00    +0.000 HD
ATOM     18  H   UNL     1     -51.627   0.149 -23.307  0.00  0.00    +0.000 HD
ENDROOT
BRANCH   6  19
ATOM     19  C   UNL     1     -49.740  -0.502 -18.876  0.00  0.00    +0.000 A 
ATOM     20  C   UNL     1     -50.161  -1.806 -19.170  0.00  0.00    +0.000 A 
ATOM     21  C   UNL     1     -50.218  -2.754 -18.147  0.00  0.00    +0.000 A 
ATOM     22  N   UNL     1     -49.870  -2.409 -16.878  0.00  0.00    +0.000 NA
ATOM     23  C   UNL     1     -49.463  -1.148 -16.569  0.00  0.00    +0.000 A 
ATOM     24  C   UNL     1     -49.392  -0.171 -17.564  0.00  0.00    +0.000 A 
ENDBRANCH   6  19
BRANCH  11  25
ATOM     25  O   UNL     1     -51.722   2.199 -18.097  0.00  0.00    +0.000 OA
ATOM     26  H   UNL     1     -52.394   2.662 -17.636  0.00  0.00    +0.000 HD
ENDBRANCH  11  25
TORSDOF 2
