REMARK  Name = ZINC000257179241
REMARK  3 active torsions:
REMARK  status: ('A' for Active; 'I' for Inactive)
REMARK    1  A    between atoms: C_1  and  C_20
REMARK    2  A    between atoms: C_7  and  C_22
REMARK    3  A    between atoms: C_24  and  C_27
REMARK                            x       y       z     vdW  Elec       q    Type
REMARK                         _______ _______ _______ _____ _____    ______ ____
ROOT
ATOM      1  C   UNL     1     -48.416  -0.724 -22.092  0.00  0.00    +0.000 C 
ATOM      2  O   UNL     1     -47.444  -1.514 -21.952  0.00  0.00    +0.000 OA
ATOM      3  N   UNL     1     -48.638   0.307 -21.105  0.00  0.00    +0.000 N 
ATOM      4  C   UNL     1     -47.543   0.743 -20.242  0.00  0.00    +0.000 C 
ATOM      5  C   UNL     1     -47.189  -0.316 -19.202  0.00  0.00    +0.000 C 
ATOM      6  C   UNL     1     -48.060  -0.185 -17.961  0.00  0.00    +0.000 C 
ATOM      7  C   UNL     1     -49.427  -0.814 -18.188  0.00  0.00    +0.000 C 
ATOM      8  C   UNL     1     -50.482  -0.181 -17.294  0.00  0.00    +0.000 C 
ATOM      9  C   UNL     1     -50.775   1.246 -17.740  0.00  0.00    +0.000 C 
ATOM     10  N   UNL     1     -51.988   1.315 -18.548  0.00  0.00    +0.000 N 
ATOM     11  C   UNL     1     -52.113   0.822 -19.888  0.00  0.00    +0.000 C 
ATOM     12  O   UNL     1     -53.184   1.020 -20.519  0.00  0.00    +0.000 OA
ATOM     13  C   UNL     1     -51.008   0.079 -20.557  0.00  0.00    +0.000 C 
ATOM     14  C   UNL     1     -49.901   1.028 -20.988  0.00  0.00    +0.000 C 
ATOM     15  H   UNL     1     -52.781   1.732 -18.142  0.00  0.00    +0.000 HD
ENDROOT
BRANCH   1  20
ATOM     16  C   UNL     1     -51.523  -2.528 -26.090  0.00  0.00    +0.000 C 
ATOM     17  C   UNL     1     -50.707  -1.738 -25.133  0.00  0.00    +0.000 A 
ATOM     18  C   UNL     1     -50.454  -0.378 -25.231  0.00  0.00    +0.000 A 
ATOM     19  C   UNL     1     -49.648   0.098 -24.187  0.00  0.00    +0.000 A 
ATOM     20  C   UNL     1     -49.285  -0.891 -23.276  0.00  0.00    +0.000 A 
ATOM     21  S   UNL     1     -49.944  -2.358 -23.774  0.00  0.00    +0.000 S 
ENDBRANCH   1  20
BRANCH   7  22
ATOM     22  C   UNL     1     -49.376  -2.290 -17.986  0.00  0.00    +0.000 A 
ATOM     23  N   UNL     1     -48.801  -3.139 -18.859  0.00  0.00    +0.000 NA
ATOM     24  C   UNL     1     -49.001  -4.324 -18.244  0.00  0.00    +0.000 A 
ATOM     25  N   UNL     1     -49.656  -4.195 -17.073  0.00  0.00    +0.000 NA
ATOM     26  O   UNL     1     -49.870  -2.920 -16.949  0.00  0.00    +0.000 OA
BRANCH  24  27
ATOM     27  C   UNL     1     -48.548  -5.612 -18.791  0.00  0.00    +0.000 A 
ATOM     28  C   UNL     1     -47.937  -6.560 -17.959  0.00  0.00    +0.000 A 
ATOM     29  C   UNL     1     -47.506  -7.784 -18.480  0.00  0.00    +0.000 A 
ATOM     30  C   UNL     1     -47.684  -8.067 -19.837  0.00  0.00    +0.000 A 
ATOM     31  C   UNL     1     -48.293  -7.126 -20.673  0.00  0.00    +0.000 A 
ATOM     32  C   UNL     1     -48.724  -5.903 -20.152  0.00  0.00    +0.000 A 
ENDBRANCH  24  27
ENDBRANCH   7  22
TORSDOF 3
