REMARK  Name = ZINC000020530889
REMARK  7 active torsions:
REMARK  status: ('A' for Active; 'I' for Inactive)
REMARK    1  A    between atoms: C_2  and  O_23
REMARK    2  A    between atoms: C_6  and  C_7
REMARK    3  A    between atoms: C_11  and  C_12
REMARK    4  A    between atoms: C_14  and  O_26
REMARK    5  A    between atoms: C_16  and  O_27
REMARK    6  A    between atoms: C_18  and  O_28
REMARK    7  A    between atoms: C_21  and  O_29
REMARK                            x       y       z     vdW  Elec       q    Type
REMARK                         _______ _______ _______ _____ _____    ______ ____
ROOT
ATOM      1  C   UNL     1     -51.594  -1.226 -20.703  0.00  0.00    +0.000 C 
ATOM      2  C   UNL     1     -51.380  -2.307 -19.634  0.00  0.00    +0.000 C 
ATOM      3  C   UNL     1     -50.764  -1.728 -18.402  0.00  0.00    +0.000 C 
ATOM      4  C   UNL     1     -51.771   0.465 -18.946  0.00  0.00    +0.000 C 
ATOM      5  C   UNL     1     -52.951   2.711 -19.252  0.00  0.00    +0.000 C 
ATOM      6  O   UNL     1     -50.041  -2.442 -17.659  0.00  0.00    +0.000 OA
ATOM      7  O   UNL     1     -53.279   2.463 -20.445  0.00  0.00    +0.000 OA
ATOM      8  N   UNL     1     -51.022  -0.368 -18.058  0.00  0.00    +0.000 NA
ATOM      9  N   UNL     1     -52.206   1.751 -18.488  0.00  0.00    +0.000 NA
ATOM     10  N   UNL     1     -52.060   0.050 -20.146  0.00  0.00    +0.000 NA
ENDROOT
BRANCH   1  15
ATOM     11  C   UNL     1     -49.197  -1.291 -23.678  0.00  0.00    +0.000 A 
ATOM     12  C   UNL     1     -48.072  -0.672 -23.108  0.00  0.00    +0.000 A 
ATOM     13  C   UNL     1     -48.088  -0.240 -21.785  0.00  0.00    +0.000 A 
ATOM     14  C   UNL     1     -49.230  -0.419 -21.011  0.00  0.00    +0.000 A 
ATOM     15  C   UNL     1     -50.368  -1.031 -21.553  0.00  0.00    +0.000 A 
ATOM     16  C   UNL     1     -50.364  -1.476 -22.890  0.00  0.00    +0.000 A 
BRANCH  11  18
ATOM     17  C   UNL     1     -48.020  -1.559 -25.845  0.00  0.00    +0.000 C 
ATOM     18  O   UNL     1     -49.160  -1.718 -25.010  0.00  0.00    +0.000 OA
ENDBRANCH  11  18
BRANCH  16  20
ATOM     19  C   UNL     1     -51.702  -2.592 -24.696  0.00  0.00    +0.000 C 
ATOM     20  O   UNL     1     -51.532  -2.086 -23.379  0.00  0.00    +0.000 OA
ENDBRANCH  16  20
ENDBRANCH   1  15
BRANCH   5  21
ATOM     21  C   UNL     1     -53.333   3.995 -18.640  0.00  0.00    +0.000 A 
ATOM     22  C   UNL     1     -54.057   4.941 -19.369  0.00  0.00    +0.000 A 
ATOM     23  C   UNL     1     -54.425   6.166 -18.794  0.00  0.00    +0.000 A 
ATOM     24  C   UNL     1     -54.066   6.456 -17.467  0.00  0.00    +0.000 A 
ATOM     25  C   UNL     1     -53.331   5.501 -16.720  0.00  0.00    +0.000 A 
ATOM     26  C   UNL     1     -52.976   4.283 -17.320  0.00  0.00    +0.000 A 
BRANCH  23  28
ATOM     27  C   UNL     1     -55.553   6.904 -20.872  0.00  0.00    +0.000 C 
ATOM     28  O   UNL     1     -55.150   7.114 -19.526  0.00  0.00    +0.000 OA
ENDBRANCH  23  28
BRANCH  24  30
ATOM     29  C   UNL     1     -54.192   8.163 -15.634  0.00  0.00    +0.000 C 
ATOM     30  O   UNL     1     -54.465   7.701 -16.949  0.00  0.00    +0.000 OA
ENDBRANCH  24  30
BRANCH  25  32
ATOM     31  C   UNL     1     -52.224   4.841 -14.601  0.00  0.00    +0.000 C 
ATOM     32  O   UNL     1     -52.959   5.762 -15.396  0.00  0.00    +0.000 OA
ENDBRANCH  25  32
ENDBRANCH   5  21
TORSDOF 7
