REMARK  Name = ZINC000018200763
REMARK  2 active torsions:
REMARK  status: ('A' for Active; 'I' for Inactive)
REMARK    1  A    between atoms: C_14  and  O_15
REMARK    2  A    between atoms: C_17  and  C_21
REMARK                            x       y       z     vdW  Elec       q    Type
REMARK                         _______ _______ _______ _____ _____    ______ ____
ROOT
ATOM      1  C   UNL     1     -48.663  -2.874 -23.104  0.00  0.00    +0.000 C 
ATOM      2  C   UNL     1     -48.015  -1.579 -23.570  0.00  0.00    +0.000 C 
ATOM      3  C   UNL     1     -47.305  -1.847 -24.879  0.00  0.00    +0.000 C 
ATOM      4  C   UNL     1     -46.983  -1.110 -22.543  0.00  0.00    +0.000 C 
ATOM      5  C   UNL     1     -47.603  -0.441 -21.349  0.00  0.00    +0.000 C 
ATOM      6  O   UNL     1     -46.886  -0.237 -20.333  0.00  0.00    +0.000 OA
ATOM      7  C   UNL     1     -49.020  -0.003 -21.359  0.00  0.00    +0.000 C 
ATOM      8  C   UNL     1     -49.727  -0.048 -22.525  0.00  0.00    +0.000 C 
ATOM      9  C   UNL     1     -49.079  -0.505 -23.803  0.00  0.00    +0.000 C 
ATOM     10  N   UNL     1     -51.077   0.446 -22.601  0.00  0.00    +0.000 N 
ATOM     11  C   UNL     1     -51.662   1.011 -21.436  0.00  0.00    +0.000 A 
ATOM     12  N   UNL     1     -52.878   1.580 -21.346  0.00  0.00    +0.000 N 
ATOM     13  N   UNL     1     -53.020   1.997 -20.091  0.00  0.00    +0.000 NA
ATOM     14  C   UNL     1     -51.893   1.687 -19.413  0.00  0.00    +0.000 A 
ATOM     15  C   UNL     1     -51.006   1.060 -20.253  0.00  0.00    +0.000 A 
ATOM     16  C   UNL     1     -49.651   0.459 -20.039  0.00  0.00    +0.000 C 
ATOM     17  H   UNL     1     -51.584   0.394 -23.443  0.00  0.00    +0.000 HD
ATOM     18  H   UNL     1     -53.537   1.670 -22.072  0.00  0.00    +0.000 HD
ENDROOT
BRANCH  16  19
ATOM     19  C   UNL     1     -49.726  -0.668 -19.040  0.00  0.00    +0.000 A 
ATOM     20  C   UNL     1     -50.300  -1.893 -19.408  0.00  0.00    +0.000 A 
ATOM     21  C   UNL     1     -50.377  -2.933 -18.480  0.00  0.00    +0.000 A 
ATOM     22  N   UNL     1     -49.900  -2.761 -17.219  0.00  0.00    +0.000 NA
ATOM     23  C   UNL     1     -49.340  -1.588 -16.822  0.00  0.00    +0.000 A 
ATOM     24  C   UNL     1     -48.864  -1.451 -15.515  0.00  0.00    +0.000 A 
ATOM     25  C   UNL     1     -48.290  -0.246 -15.101  0.00  0.00    +0.000 A 
ATOM     26  C   UNL     1     -48.190   0.827 -15.991  0.00  0.00    +0.000 A 
ATOM     27  C   UNL     1     -48.663   0.698 -17.300  0.00  0.00    +0.000 A 
ATOM     28  C   UNL     1     -49.241  -0.506 -17.729  0.00  0.00    +0.000 A 
ENDBRANCH  16  19
BRANCH  14  29
ATOM     29  O   UNL     1     -51.691   1.963 -18.068  0.00  0.00    +0.000 OA
ATOM     30  H   UNL     1     -52.358   2.396 -17.573  0.00  0.00    +0.000 HD
ENDBRANCH  14  29
TORSDOF 2
