REMARK  Name = ZINC000015625802 ZINC15625802 CSC026339303 MCULE-7875438388 MolPort-009-499-490 PubChem-26717303
REMARK  6 active torsions:
REMARK  status: ('A' for Active; 'I' for Inactive)
REMARK    1  A    between atoms: C_2  and  O_22
REMARK    2  A    between atoms: C_3  and  O_22
REMARK    3  A    between atoms: C_6  and  O_23
REMARK    4  A    between atoms: C_7  and  O_23
REMARK    5  A    between atoms: C_9  and  N_25
REMARK    6  A    between atoms: C_10  and  C_11
REMARK                            x       y       z     vdW  Elec       q    Type
REMARK                         _______ _______ _______ _____ _____    ______ ____
ROOT
ATOM      1  C   UNL     1     -52.221   1.763 -19.953  0.00  0.00    +0.000 C 
ATOM      2  O   UNL     1     -53.279   2.085 -20.556  0.00  0.00    +0.000 OA
ATOM      3  N   UNL     1     -52.151   1.963 -18.535  0.00  0.00    +0.000 NA
ENDROOT
BRANCH   1   4
ATOM      4  C   UNL     1     -51.074   1.249 -20.730  0.00  0.00    +0.000 A 
ATOM      5  C   UNL     1     -49.755   1.355 -20.225  0.00  0.00    +0.000 A 
ATOM      6  C   UNL     1     -48.654   0.891 -20.965  0.00  0.00    +0.000 A 
ATOM      7  C   UNL     1     -48.904   0.330 -22.214  0.00  0.00    +0.000 A 
ATOM      8  C   UNL     1     -48.716  -0.584 -24.133  0.00  0.00    +0.000 A 
ATOM      9  C   UNL     1     -48.106  -1.210 -25.338  0.00  0.00    +0.000 C 
ATOM     10  C   UNL     1     -50.074  -0.351 -23.951  0.00  0.00    +0.000 A 
ATOM     11  C   UNL     1     -51.184  -0.668 -24.894  0.00  0.00    +0.000 C 
ATOM     12  C   UNL     1     -50.177   0.235 -22.715  0.00  0.00    +0.000 A 
ATOM     13  C   UNL     1     -51.288   0.687 -22.006  0.00  0.00    +0.000 A 
ATOM     14  N   UNL     1     -47.989  -0.167 -23.069  0.00  0.00    +0.000 NA
ENDBRANCH   1   4
BRANCH   3  19
ATOM     15  C   UNL     1     -50.562  -1.071 -17.009  0.00  0.00    +0.000 A 
ATOM     16  C   UNL     1     -50.268  -0.591 -15.725  0.00  0.00    +0.000 A 
ATOM     17  C   UNL     1     -50.592   0.722 -15.375  0.00  0.00    +0.000 A 
ATOM     18  C   UNL     1     -51.209   1.574 -16.305  0.00  0.00    +0.000 A 
ATOM     19  C   UNL     1     -51.491   1.102 -17.596  0.00  0.00    +0.000 A 
ATOM     20  C   UNL     1     -51.178  -0.224 -17.933  0.00  0.00    +0.000 A 
BRANCH  15  21
ATOM     21  O   UNL     1     -50.256  -2.381 -17.390  0.00  0.00    +0.000 OA
BRANCH  21  23
ATOM     22  C   UNL     1     -50.529  -4.513 -16.328  0.00  0.00    +0.000 C 
ATOM     23  C   UNL     1     -49.630  -3.309 -16.516  0.00  0.00    +0.000 C 
ENDBRANCH  21  23
ENDBRANCH  15  21
BRANCH  18  24
ATOM     24  O   UNL     1     -51.546   2.890 -15.967  0.00  0.00    +0.000 OA
BRANCH  24  25
ATOM     25  C   UNL     1     -51.292   3.444 -14.683  0.00  0.00    +0.000 C 
ATOM     26  C   UNL     1     -51.775   4.879 -14.649  0.00  0.00    +0.000 C 
ENDBRANCH  24  25
ENDBRANCH  18  24
ENDBRANCH   3  19
TORSDOF 6
