REMARK  Name = ZINC000012772569 CSC027018696 MCULE-2308435649 MolPort-005-665-378
REMARK  4 active torsions:
REMARK  status: ('A' for Active; 'I' for Inactive)
REMARK    1  A    between atoms: C_1  and  C_19
REMARK    2  A    between atoms: N_18  and  C_23
REMARK    3  A    between atoms: C_22  and  O_32
REMARK    4  A    between atoms: C_25  and  N_28
REMARK                            x       y       z     vdW  Elec       q    Type
REMARK                         _______ _______ _______ _____ _____    ______ ____
ROOT
ATOM      1  C   UNL     1     -51.182   1.015 -20.516  0.00  0.00    +0.000 A 
ATOM      2  C   UNL     1     -51.541  -0.050 -21.355  0.00  0.00    +0.000 A 
ATOM      3  C   UNL     1     -50.557  -0.840 -21.956  0.00  0.00    +0.000 A 
ATOM      4  C   UNL     1     -49.197  -0.565 -21.729  0.00  0.00    +0.000 A 
ATOM      5  C   UNL     1     -48.239  -1.377 -22.350  0.00  0.00    +0.000 A 
ATOM      6  N   UNL     1     -48.641  -2.411 -23.154  0.00  0.00    +0.000 N 
ATOM      7  C   UNL     1     -49.976  -2.659 -23.351  0.00  0.00    +0.000 A 
ATOM      8  N   UNL     1     -50.912  -1.872 -22.758  0.00  0.00    +0.000 NA
ATOM      9  C   UNL     1     -50.441  -3.777 -24.236  0.00  0.00    +0.000 C 
ATOM     10  C   UNL     1     -50.551  -3.325 -25.687  0.00  0.00    +0.000 C 
ATOM     11  C   UNL     1     -49.211  -3.406 -26.407  0.00  0.00    +0.000 C 
ATOM     12  C   UNL     1     -48.339  -2.210 -26.054  0.00  0.00    +0.000 C 
ATOM     13  C   UNL     1     -47.181  -2.603 -25.139  0.00  0.00    +0.000 C 
ATOM     14  C   UNL     1     -47.641  -3.242 -23.828  0.00  0.00    +0.000 C 
ATOM     15  O   UNL     1     -47.009  -1.154 -22.168  0.00  0.00    +0.000 OA
ATOM     16  C   UNL     1     -48.836   0.508 -20.903  0.00  0.00    +0.000 A 
ATOM     17  C   UNL     1     -49.824   1.294 -20.304  0.00  0.00    +0.000 A 
ENDROOT
BRANCH   1  19
ATOM     18  N   UNL     1     -52.060   2.471 -18.617  0.00  0.00    +0.000 N 
ATOM     19  C   UNL     1     -52.231   1.855 -19.901  0.00  0.00    +0.000 C 
ATOM     20  O   UNL     1     -53.292   2.083 -20.541  0.00  0.00    +0.000 OA
ATOM     21  H   UNL     1     -52.420   3.380 -18.504  0.00  0.00    +0.000 HD
BRANCH  18  23
ATOM     22  C   UNL     1     -51.467   2.530 -16.238  0.00  0.00    +0.000 A 
ATOM     23  C   UNL     1     -51.412   1.880 -17.481  0.00  0.00    +0.000 A 
ATOM     24  C   UNL     1     -50.774   0.634 -17.584  0.00  0.00    +0.000 A 
ATOM     25  C   UNL     1     -50.165   0.044 -16.470  0.00  0.00    +0.000 A 
ATOM     26  C   UNL     1     -50.211   0.705 -15.236  0.00  0.00    +0.000 A 
ATOM     27  C   UNL     1     -50.859   1.936 -15.120  0.00  0.00    +0.000 A 
BRANCH  25  28
ATOM     28  N   UNL     1     -49.503  -1.221 -16.597  0.00  0.00    +0.000 N 
ATOM     29  O   UNL     1     -48.941  -1.593 -17.797  0.00  0.00    +0.000 OA
ATOM     30  O   UNL     1     -49.422  -1.996 -15.622  0.00  0.00    +0.000 OA
ENDBRANCH  25  28
BRANCH  22  32
ATOM     31  C   UNL     1     -51.559   4.884 -15.476  0.00  0.00    +0.000 C 
ATOM     32  O   UNL     1     -52.126   3.760 -16.136  0.00  0.00    +0.000 OA
ENDBRANCH  22  32
ENDBRANCH  18  23
ENDBRANCH   1  19
TORSDOF 4
