REMARK  Name = ZINC000003831423 ZINC03831423 PubChem-7048776
REMARK  9 active torsions:
REMARK  status: ('A' for Active; 'I' for Inactive)
REMARK    1  A    between atoms: N_9  and  C_20
REMARK    2  A    between atoms: C_20  and  C_21
REMARK    3  A    between atoms: C_21  and  O_22
REMARK    4  A    between atoms: C_21  and  C_24
REMARK    5  A    between atoms: C_24  and  O_25
REMARK    6  A    between atoms: C_24  and  C_27
REMARK    7  A    between atoms: C_27  and  O_28
REMARK    8  A    between atoms: C_27  and  C_30
REMARK    9  A    between atoms: C_30  and  O_31
REMARK                            x       y       z     vdW  Elec       q    Type
REMARK                         _______ _______ _______ _____ _____    ______ ____
ROOT
ATOM      1  C   UNL     1     -48.999  -0.709 -25.581  0.00  0.00    +0.000 C 
ATOM      2  C   UNL     1     -49.108  -0.663 -24.095  0.00  0.00    +0.000 A 
ATOM      3  C   UNL     1     -50.043   0.199 -23.517  0.00  0.00    +0.000 A 
ATOM      4  C   UNL     1     -50.180   0.274 -22.129  0.00  0.00    +0.000 A 
ATOM      5  C   UNL     1     -49.365  -0.532 -21.289  0.00  0.00    +0.000 A 
ATOM      6  C   UNL     1     -48.427  -1.393 -21.884  0.00  0.00    +0.000 A 
ATOM      7  C   UNL     1     -48.295  -1.463 -23.273  0.00  0.00    +0.000 A 
ATOM      8  C   UNL     1     -47.284  -2.397 -23.848  0.00  0.00    +0.000 C 
ATOM      9  N   UNL     1     -49.498  -0.463 -19.922  0.00  0.00    +0.000 N 
ATOM     10  C   UNL     1     -50.413   0.387 -19.371  0.00  0.00    +0.000 A 
ATOM     11  N   UNL     1     -50.576   0.494 -18.026  0.00  0.00    +0.000 NA
ATOM     12  C   UNL     1     -51.495   1.346 -17.498  0.00  0.00    +0.000 A 
ATOM     13  O   UNL     1     -51.626   1.425 -16.249  0.00  0.00    +0.000 OA
ATOM     14  N   UNL     1     -52.276   2.115 -18.307  0.00  0.00    +0.000 N 
ATOM     15  C   UNL     1     -52.177   2.071 -19.662  0.00  0.00    +0.000 A 
ATOM     16  O   UNL     1     -52.920   2.802 -20.369  0.00  0.00    +0.000 OA
ATOM     17  C   UNL     1     -51.250   1.215 -20.254  0.00  0.00    +0.000 A 
ATOM     18  N   UNL     1     -51.096   1.121 -21.596  0.00  0.00    +0.000 NA
ATOM     19  H   UNL     1     -52.933   2.723 -17.898  0.00  0.00    +0.000 HD
ENDROOT
BRANCH   9  20
ATOM     20  C   UNL     1     -48.674  -1.300 -19.044  0.00  0.00    +0.000 C 
BRANCH  20  21
ATOM     21  C   UNL     1     -49.270  -2.695 -18.920  0.00  0.00    +0.000 C 
BRANCH  21  22
ATOM     22  O   UNL     1     -50.513  -2.636 -18.283  0.00  0.00    +0.000 OA
ATOM     23  H   UNL     1     -50.402  -2.272 -17.390  0.00  0.00    +0.000 HD
ENDBRANCH  21  22
BRANCH  21  24
ATOM     24  C   UNL     1     -48.316  -3.613 -18.157  0.00  0.00    +0.000 C 
BRANCH  24  25
ATOM     25  O   UNL     1     -48.385  -3.347 -16.786  0.00  0.00    +0.000 OA
ATOM     26  H   UNL     1     -49.284  -3.522 -16.467  0.00  0.00    +0.000 HD
ENDBRANCH  24  25
BRANCH  24  27
ATOM     27  C   UNL     1     -48.631  -5.082 -18.426  0.00  0.00    +0.000 C 
BRANCH  27  28
ATOM     28  O   UNL     1     -47.769  -5.896 -17.688  0.00  0.00    +0.000 OA
ATOM     29  H   UNL     1     -46.853  -5.721 -17.954  0.00  0.00    +0.000 HD
ENDBRANCH  27  28
BRANCH  27  30
ATOM     30  C   UNL     1     -48.469  -5.396 -19.906  0.00  0.00    +0.000 C 
BRANCH  30  31
ATOM     31  O   UNL     1     -49.439  -6.315 -20.305  0.00  0.00    +0.000 OA
ATOM     32  H   UNL     1     -49.339  -7.133 -19.793  0.00  0.00    +0.000 HD
ENDBRANCH  30  31
ENDBRANCH  27  30
ENDBRANCH  24  27
ENDBRANCH  21  24
ENDBRANCH  20  21
ENDBRANCH   9  20
TORSDOF 9
