REMARK  Name = ZINC000003368851 ZINC03368851 CSC027878501 MCULE-2701712437 MolPort-005-844-179 PubChem-2486663
REMARK  7 active torsions:
REMARK  status: ('A' for Active; 'I' for Inactive)
REMARK    1  A    between atoms: C_6  and  C_19
REMARK    2  A    between atoms: N_10  and  C_18
REMARK    3  A    between atoms: C_19  and  O_20
REMARK    4  A    between atoms: O_20  and  C_21
REMARK    5  A    between atoms: C_21  and  C_23
REMARK    6  A    between atoms: C_23  and  S_24
REMARK    7  A    between atoms: S_24  and  C_25
REMARK                            x       y       z     vdW  Elec       q    Type
REMARK                         _______ _______ _______ _____ _____    ______ ____
ROOT
ATOM      1  C   UNL     1     -52.112   2.216 -18.262  0.00  0.00    +0.000 A 
ATOM      2  N   UNL     1     -52.747   2.543 -19.417  0.00  0.00    +0.000 NA
ATOM      3  C   UNL     1     -52.737   1.686 -20.470  0.00  0.00    +0.000 A 
ATOM      4  N   UNL     1     -53.414   2.027 -21.673  0.00  0.00    +0.000 N 
ATOM      5  N   UNL     1     -52.088   0.499 -20.373  0.00  0.00    +0.000 NA
ATOM      6  C   UNL     1     -51.457   0.165 -19.219  0.00  0.00    +0.000 A 
ATOM      7  N   UNL     1     -51.470   1.022 -18.167  0.00  0.00    +0.000 NA
ATOM      8  H   UNL     1     -53.886   2.888 -21.745  0.00  0.00    +0.000 HD
ATOM      9  H   UNL     1     -53.411   1.402 -22.434  0.00  0.00    +0.000 HD
ATOM     10  N   UNL     1     -52.144   3.135 -17.161  0.00  0.00    +0.000 N 
ATOM     11  H   UNL     1     -52.670   3.957 -17.292  0.00  0.00    +0.000 HD
ENDROOT
BRANCH  10  18
ATOM     12  C   UNL     1     -51.672   5.488 -15.549  0.00  0.00    +0.000 C 
ATOM     13  C   UNL     1     -51.261   4.130 -15.088  0.00  0.00    +0.000 A 
ATOM     14  C   UNL     1     -50.644   3.999 -13.839  0.00  0.00    +0.000 A 
ATOM     15  C   UNL     1     -50.251   2.741 -13.373  0.00  0.00    +0.000 A 
ATOM     16  C   UNL     1     -50.470   1.609 -14.159  0.00  0.00    +0.000 A 
ATOM     17  C   UNL     1     -51.084   1.736 -15.408  0.00  0.00    +0.000 A 
ATOM     18  C   UNL     1     -51.492   2.992 -15.885  0.00  0.00    +0.000 A 
ENDBRANCH  10  18
BRANCH   6  19
ATOM     19  C   UNL     1     -50.730  -1.133 -19.119  0.00  0.00    +0.000 C 
BRANCH  19  20
ATOM     20  O   UNL     1     -49.497  -0.948 -18.435  0.00  0.00    +0.000 OA
BRANCH  20  21
ATOM     21  C   UNL     1     -48.516  -1.943 -18.385  0.00  0.00    +0.000 C 
ATOM     22  O   UNL     1     -48.537  -2.834 -17.491  0.00  0.00    +0.000 OA
BRANCH  21  23
ATOM     23  C   UNL     1     -47.420  -1.942 -19.393  0.00  0.00    +0.000 C 
BRANCH  23  24
ATOM     24  S   UNL     1     -47.126  -0.251 -20.005  0.00  0.00    +0.000 S 
BRANCH  24  25
ATOM     25  C   UNL     1     -47.845  -0.589 -21.608  0.00  0.00    +0.000 A 
ATOM     26  C   UNL     1     -49.005   0.082 -22.010  0.00  0.00    +0.000 A 
ATOM     27  C   UNL     1     -49.542  -0.158 -23.276  0.00  0.00    +0.000 A 
ATOM     28  C   UNL     1     -50.761   0.593 -23.692  0.00  0.00    +0.000 C 
ATOM     29  C   UNL     1     -48.915  -1.083 -24.130  0.00  0.00    +0.000 A 
ATOM     30  C   UNL     1     -49.413  -1.363 -25.411  0.00  0.00    +0.000 A 
ATOM     31  C   UNL     1     -48.765  -2.290 -26.232  0.00  0.00    +0.000 A 
ATOM     32  C   UNL     1     -47.614  -2.942 -25.782  0.00  0.00    +0.000 A 
ATOM     33  C   UNL     1     -47.103  -2.667 -24.510  0.00  0.00    +0.000 A 
ATOM     34  C   UNL     1     -47.747  -1.744 -23.681  0.00  0.00    +0.000 A 
ATOM     35  N   UNL     1     -47.242  -1.472 -22.448  0.00  0.00    +0.000 NA
ENDBRANCH  24  25
ENDBRANCH  23  24
ENDBRANCH  21  23
ENDBRANCH  20  21
ENDBRANCH  19  20
ENDBRANCH   6  19
TORSDOF 7
