REMARK  Name = ZINC000100627416
REMARK  4 active torsions:
REMARK  status: ('A' for Active; 'I' for Inactive)
REMARK    1  A    between atoms: C_12  and  C_19
REMARK    2  A    between atoms: N_15  and  C_28
REMARK    3  A    between atoms: N_21  and  C_23
REMARK    4  A    between atoms: C_28  and  C_29
REMARK                            x       y       z     vdW  Elec       q    Type
REMARK                         _______ _______ _______ _____ _____    ______ ____
ROOT
ATOM      1  C   UNL     1     -47.022  -2.221 -24.180  0.00  0.00    +0.000 C 
ATOM      2  C   UNL     1     -48.322  -1.545 -24.459  0.00  0.00    +0.000 A 
ATOM      3  C   UNL     1     -48.837  -1.575 -25.753  0.00  0.00    +0.000 A 
ATOM      4  C   UNL     1     -50.050  -0.952 -26.034  0.00  0.00    +0.000 A 
ATOM      5  C   UNL     1     -50.737  -0.302 -25.009  0.00  0.00    +0.000 A 
ATOM      6  N   UNL     1     -50.237  -0.269 -23.738  0.00  0.00    +0.000 N 
ATOM      7  C   UNL     1     -49.038  -0.881 -23.448  0.00  0.00    +0.000 A 
ATOM      8  N   UNL     1     -48.545  -0.848 -22.181  0.00  0.00    +0.000 NA
ATOM      9  C   UNL     1     -49.206  -0.225 -21.170  0.00  0.00    +0.000 A 
ATOM     10  C   UNL     1     -50.425   0.413 -21.445  0.00  0.00    +0.000 A 
ATOM     11  C   UNL     1     -51.095   1.068 -20.416  0.00  0.00    +0.000 A 
ATOM     12  C   UNL     1     -50.568   1.106 -19.123  0.00  0.00    +0.000 A 
ATOM     13  C   UNL     1     -49.330   0.457 -18.883  0.00  0.00    +0.000 A 
ATOM     14  N   UNL     1     -48.786   0.512 -17.708  0.00  0.00    +0.000 NA
ATOM     15  N   UNL     1     -48.690  -0.212 -19.900  0.00  0.00    +0.000 N 
ATOM     16  C   UNL     1     -50.933   0.378 -22.751  0.00  0.00    +0.000 A 
ATOM     17  O   UNL     1     -52.033   0.946 -23.011  0.00  0.00    +0.000 OA
ATOM     18  H   UNL     1     -49.240   0.990 -16.977  0.00  0.00    +0.000 HD
ENDROOT
BRANCH  12  19
ATOM     19  C   UNL     1     -51.339   1.829 -18.078  0.00  0.00    +0.000 C 
ATOM     20  O   UNL     1     -52.452   2.347 -18.373  0.00  0.00    +0.000 OA
ATOM     21  N   UNL     1     -50.850   1.937 -16.736  0.00  0.00    +0.000 N 
ATOM     22  H   UNL     1     -49.996   1.502 -16.511  0.00  0.00    +0.000 HD
BRANCH  21  23
ATOM     23  C   UNL     1     -51.561   2.660 -15.692  0.00  0.00    +0.000 C 
ATOM     24  C   UNL     1     -51.914   4.060 -16.170  0.00  0.00    +0.000 C 
ATOM     25  C   UNL     1     -51.141   5.027 -15.298  0.00  0.00    +0.000 C 
ATOM     26  C   UNL     1     -50.809   4.259 -14.041  0.00  0.00    +0.000 C 
ATOM     27  C   UNL     1     -50.655   2.823 -14.488  0.00  0.00    +0.000 C 
ENDBRANCH  21  23
ENDBRANCH  12  19
BRANCH  15  28
ATOM     28  C   UNL     1     -47.422  -0.909 -19.633  0.00  0.00    +0.000 C 
BRANCH  28  29
ATOM     29  C   UNL     1     -47.638  -2.355 -19.174  0.00  0.00    +0.000 C 
ATOM     30  C   UNL     1     -47.311  -3.351 -20.266  0.00  0.00    +0.000 C 
ATOM     31  C   UNL     1     -48.472  -4.295 -20.259  0.00  0.00    +0.000 C 
ATOM     32  C   UNL     1     -49.242  -3.901 -19.023  0.00  0.00    +0.000 C 
ATOM     33  O   UNL     1     -48.957  -2.559 -18.737  0.00  0.00    +0.000 OA
ENDBRANCH  28  29
ENDBRANCH  15  28
TORSDOF 4
