REMARK  Name = ZINC000113940140 CSC048854728
REMARK  3 active torsions:
REMARK  status: ('A' for Active; 'I' for Inactive)
REMARK    1  A    between atoms: C_2  and  C_5
REMARK    2  A    between atoms: N_3  and  C_18
REMARK    3  A    between atoms: C_23  and  C_24
REMARK                            x       y       z     vdW  Elec       q    Type
REMARK                         _______ _______ _______ _____ _____    ______ ____
ROOT
ATOM      1  O   UNL     1     -50.747   2.031 -20.776  0.00  0.00    +0.000 OA
ATOM      2  C   UNL     1     -50.169   0.932 -20.559  0.00  0.00    +0.000 C 
ATOM      3  N   UNL     1     -49.969   0.453 -19.224  0.00  0.00    +0.000 N 
ATOM      4  H   UNL     1     -49.478  -0.396 -19.135  0.00  0.00    +0.000 HD
ENDROOT
BRANCH   2   5
ATOM      5  C   UNL     1     -49.698   0.117 -21.683  0.00  0.00    +0.000 A 
ATOM      6  C   UNL     1     -50.477  -0.269 -22.776  0.00  0.00    +0.000 A 
ATOM      7  C   UNL     1     -49.592  -1.015 -23.532  0.00  0.00    +0.000 A 
ATOM      8  C   UNL     1     -48.389  -1.033 -22.878  0.00  0.00    +0.000 A 
ATOM      9  O   UNL     1     -48.466  -0.348 -21.770  0.00  0.00    +0.000 OA
ATOM     10  C   UNL     1     -47.278  -1.708 -23.381  0.00  0.00    +0.000 A 
ATOM     11  C   UNL     1     -47.421  -2.387 -24.604  0.00  0.00    +0.000 A 
ATOM     12  C   UNL     1     -48.654  -2.377 -25.290  0.00  0.00    +0.000 A 
ATOM     13  C   UNL     1     -48.788  -3.054 -26.504  0.00  0.00    +0.000 A 
ATOM     14  C   UNL     1     -50.012  -3.042 -27.181  0.00  0.00    +0.000 A 
ATOM     15  C   UNL     1     -51.108  -2.354 -26.648  0.00  0.00    +0.000 A 
ATOM     16  C   UNL     1     -50.989  -1.672 -25.433  0.00  0.00    +0.000 A 
ATOM     17  C   UNL     1     -49.768  -1.679 -24.749  0.00  0.00    +0.000 A 
ENDBRANCH   2   5
BRANCH   3  18
ATOM     18  C   UNL     1     -50.403   1.066 -17.999  0.00  0.00    +0.000 A 
ATOM     19  C   UNL     1     -51.556   1.864 -17.962  0.00  0.00    +0.000 A 
ATOM     20  C   UNL     1     -51.944   2.504 -16.784  0.00  0.00    +0.000 A 
ATOM     21  C   UNL     1     -51.176   2.360 -15.629  0.00  0.00    +0.000 A 
ATOM     22  C   UNL     1     -50.026   1.568 -15.650  0.00  0.00    +0.000 A 
ATOM     23  C   UNL     1     -49.637   0.903 -16.822  0.00  0.00    +0.000 A 
BRANCH  23  24
ATOM     24  C   UNL     1     -48.408   0.077 -16.791  0.00  0.00    +0.000 C 
ATOM     25  O   UNL     1     -47.330   0.601 -16.398  0.00  0.00    +0.000 OA
ATOM     26  N   UNL     1     -48.422  -1.304 -17.185  0.00  0.00    +0.000 N 
ATOM     27  C   UNL     1     -47.170  -1.965 -17.552  0.00  0.00    +0.000 C 
ATOM     28  C   UNL     1     -47.474  -3.141 -18.480  0.00  0.00    +0.000 C 
ATOM     29  O   UNL     1     -48.418  -3.993 -17.878  0.00  0.00    +0.000 OA
ATOM     30  C   UNL     1     -49.642  -3.300 -17.884  0.00  0.00    +0.000 C 
ATOM     31  C   UNL     1     -49.588  -2.139 -16.891  0.00  0.00    +0.000 C 
ENDBRANCH  23  24
ENDBRANCH   3  18
TORSDOF 3
