REMARK  Name = ZINC000020924363 ZINC20924363 PubChem-92705276
REMARK  4 active torsions:
REMARK  status: ('A' for Active; 'I' for Inactive)
REMARK    1  A    between atoms: C_5  and  C_8
REMARK    2  A    between atoms: C_12  and  C_13
REMARK    3  A    between atoms: C_16  and  O_24
REMARK    4  A    between atoms: C_17  and  O_23
REMARK                            x       y       z     vdW  Elec       q    Type
REMARK                         _______ _______ _______ _____ _____    ______ ____
ROOT
ATOM      1  C   UNL     1     -51.914  -1.354 -20.695  0.00  0.00    +0.000 C 
ATOM      2  C   UNL     1     -51.612  -2.393 -19.606  0.00  0.00    +0.000 C 
ATOM      3  C   UNL     1     -50.829  -1.785 -18.488  0.00  0.00    +0.000 C 
ATOM      4  C   UNL     1     -51.824   0.418 -19.012  0.00  0.00    +0.000 C 
ATOM      5  C   UNL     1     -52.963   2.690 -19.281  0.00  0.00    +0.000 C 
ATOM      6  O   UNL     1     -50.044  -2.492 -17.806  0.00  0.00    +0.000 OA
ATOM      7  O   UNL     1     -53.441   2.403 -20.412  0.00  0.00    +0.000 OA
ATOM      8  N   UNL     1     -50.999  -0.403 -18.181  0.00  0.00    +0.000 NA
ATOM      9  N   UNL     1     -52.270  -0.038 -20.147  0.00  0.00    +0.000 NA
ATOM     10  N   UNL     1     -52.161   1.738 -18.567  0.00  0.00    +0.000 NA
ENDROOT
BRANCH   1  15
ATOM     11  C   UNL     1     -47.610  -0.976 -24.546  0.00  0.00    +0.000 C 
ATOM     12  C   UNL     1     -48.711  -1.068 -23.552  0.00  0.00    +0.000 A 
ATOM     13  C   UNL     1     -49.925  -1.665 -23.905  0.00  0.00    +0.000 A 
ATOM     14  C   UNL     1     -50.961  -1.752 -22.971  0.00  0.00    +0.000 A 
ATOM     15  C   UNL     1     -50.789  -1.240 -21.680  0.00  0.00    +0.000 A 
ATOM     16  C   UNL     1     -49.568  -0.644 -21.328  0.00  0.00    +0.000 A 
ATOM     17  C   UNL     1     -48.533  -0.558 -22.262  0.00  0.00    +0.000 A 
ENDBRANCH   1  15
BRANCH   5  18
ATOM     18  C   UNL     1     -53.228   4.013 -18.689  0.00  0.00    +0.000 A 
ATOM     19  C   UNL     1     -54.008   4.954 -19.372  0.00  0.00    +0.000 A 
ATOM     20  C   UNL     1     -54.258   6.206 -18.809  0.00  0.00    +0.000 A 
ATOM     21  C   UNL     1     -53.730   6.539 -17.550  0.00  0.00    +0.000 A 
ATOM     22  C   UNL     1     -52.947   5.602 -16.859  0.00  0.00    +0.000 A 
ATOM     23  C   UNL     1     -52.702   4.344 -17.434  0.00  0.00    +0.000 A 
BRANCH  22  25
ATOM     24  C   UNL     1     -51.623   5.050 -14.841  0.00  0.00    +0.000 C 
ATOM     25  O   UNL     1     -52.425   5.940 -15.606  0.00  0.00    +0.000 OA
ENDBRANCH  22  25
BRANCH  21  27
ATOM     26  C   UNL     1     -54.751   8.794 -17.605  0.00  0.00    +0.000 C 
ATOM     27  O   UNL     1     -53.970   7.790 -16.971  0.00  0.00    +0.000 OA
ENDBRANCH  21  27
ENDBRANCH   5  18
TORSDOF 4
