REMARK  Name = ZINC000225948475
REMARK  9 active torsions:
REMARK  status: ('A' for Active; 'I' for Inactive)
REMARK    1  A    between atoms: C_3  and  S_21
REMARK    2  A    between atoms: C_4  and  C_5
REMARK    3  A    between atoms: C_4  and  S_21
REMARK    4  A    between atoms: C_5  and  N_18
REMARK    5  A    between atoms: C_6  and  C_7
REMARK    6  A    between atoms: C_7  and  C_8
REMARK    7  A    between atoms: C_8  and  C_10
REMARK    8  A    between atoms: C_8  and  N_19
REMARK    9  A    between atoms: N_19  and  S_22
REMARK                            x       y       z     vdW  Elec       q    Type
REMARK                         _______ _______ _______ _____ _____    ______ ____
ROOT
ATOM      1  C   UNL     1     -51.124   1.634 -20.649  0.00  0.00    +0.000 C 
ENDROOT
BRANCH   1   2
ATOM      2  C   UNL     1     -52.262   1.925 -19.733  0.00  0.00    +0.000 C 
ATOM      3  N   UNL     1     -52.020   2.087 -18.336  0.00  0.00    +0.000 NA
ATOM      4  O   UNL     1     -53.432   1.992 -20.194  0.00  0.00    +0.000 OA
BRANCH   3   5
ATOM      5  C   UNL     1     -53.098   2.335 -17.392  0.00  0.00    +0.000 C 
BRANCH   5   6
ATOM      6  C   UNL     1     -52.538   2.459 -15.986  0.00  0.00    +0.000 C 
BRANCH   6   7
ATOM      7  S   UNL     1     -51.584   4.000 -15.805  0.00  0.00    +0.000 S 
BRANCH   7  10
ATOM      8  C   UNL     1     -55.752   7.034 -16.588  0.00  0.00    +0.000 C 
ATOM      9  C   UNL     1     -54.708   6.211 -15.922  0.00  0.00    +0.000 A 
ATOM     10  C   UNL     1     -53.051   4.997 -15.575  0.00  0.00    +0.000 A 
ATOM     11  N   UNL     1     -54.659   6.004 -14.595  0.00  0.00    +0.000 NA
ATOM     12  N   UNL     1     -53.607   5.235 -14.374  0.00  0.00    +0.000 NA
ATOM     13  N   UNL     1     -53.711   5.596 -16.585  0.00  0.00    +0.000 NA
ENDBRANCH   7  10
ENDBRANCH   6   7
ENDBRANCH   5   6
ENDBRANCH   3   5
ENDBRANCH   1   2
BRANCH   1  14
ATOM     14  C   UNL     1     -50.856   0.136 -20.711  0.00  0.00    +0.000 C 
BRANCH  14  15
ATOM     15  C   UNL     1     -49.988  -0.196 -21.884  0.00  0.00    +0.000 A 
ATOM     16  C   UNL     1     -48.678   0.296 -21.982  0.00  0.00    +0.000 A 
ATOM     17  C   UNL     1     -47.884  -0.034 -23.084  0.00  0.00    +0.000 A 
ATOM     18  C   UNL     1     -48.395  -0.858 -24.091  0.00  0.00    +0.000 A 
ATOM     19  C   UNL     1     -49.699  -1.351 -23.997  0.00  0.00    +0.000 A 
ATOM     20  C   UNL     1     -50.494  -1.022 -22.895  0.00  0.00    +0.000 A 
ATOM     21 CL   UNL     1     -47.401  -1.271 -25.471  0.00  0.00    +0.000 Cl
ENDBRANCH  14  15
BRANCH  14  22
ATOM     22  N   UNL     1     -50.228  -0.315 -19.475  0.00  0.00    +0.000 NA
BRANCH  22  24
ATOM     23  C   UNL     1     -52.752  -1.438 -18.659  0.00  0.00    +0.000 C 
ATOM     24  S   UNL     1     -51.030  -1.763 -18.962  0.00  0.00    +0.000 S 
ATOM     25  O   UNL     1     -50.898  -2.823 -20.019  0.00  0.00    +0.000 OA
ATOM     26  O   UNL     1     -50.395  -2.251 -17.691  0.00  0.00    +0.000 OA
ENDBRANCH  22  24
ENDBRANCH  14  22
ENDBRANCH   1  14
TORSDOF 9
