REMARK  Name = ZINC000031810633
REMARK  1 active torsions:
REMARK  status: ('A' for Active; 'I' for Inactive)
REMARK    1  A    between atoms: C_7  and  C_24
REMARK                            x       y       z     vdW  Elec       q    Type
REMARK                         _______ _______ _______ _____ _____    ______ ____
ROOT
ATOM      1  C   UNL     1     -47.535  -1.390 -24.358  0.00  0.00    +0.000 C 
ATOM      2  C   UNL     1     -48.491  -1.188 -23.235  0.00  0.00    +0.000 A 
ATOM      3  N   UNL     1     -49.451  -0.247 -23.239  0.00  0.00    +0.000 NA
ATOM      4  N   UNL     1     -50.112  -0.343 -22.097  0.00  0.00    +0.000 N 
ATOM      5  C   UNL     1     -49.610  -1.362 -21.362  0.00  0.00    +0.000 A 
ATOM      6  C   UNL     1     -48.543  -1.923 -22.062  0.00  0.00    +0.000 A 
ATOM      7  C   UNL     1     -47.635  -3.078 -21.739  0.00  0.00    +0.000 C 
ATOM      8  S   UNL     1     -47.338  -3.380 -19.970  0.00  0.00    +0.000 S 
ATOM      9  C   UNL     1     -49.013  -4.004 -19.710  0.00  0.00    +0.000 C 
ATOM     10  C   UNL     1     -49.900  -2.896 -19.277  0.00  0.00    +0.000 C 
ATOM     11  O   UNL     1     -50.452  -2.977 -18.150  0.00  0.00    +0.000 OA
ATOM     12  N   UNL     1     -50.178  -1.761 -20.103  0.00  0.00    +0.000 N 
ATOM     13  H   UNL     1     -50.870  -1.155 -19.752  0.00  0.00    +0.000 HD
ATOM     14  C   UNL     1     -51.233   0.495 -21.780  0.00  0.00    +0.000 A 
ATOM     15  N   UNL     1     -52.113   0.861 -22.761  0.00  0.00    +0.000 NA
ATOM     16  C   UNL     1     -53.178   1.684 -22.498  0.00  0.00    +0.000 A 
ATOM     17  N   UNL     1     -53.380   2.176 -21.239  0.00  0.00    +0.000 NA
ATOM     18  C   UNL     1     -52.501   1.826 -20.270  0.00  0.00    +0.000 A 
ATOM     19  N   UNL     1     -52.502   2.252 -19.001  0.00  0.00    +0.000 N 
ATOM     20  C   UNL     1     -51.389   1.657 -18.491  0.00  0.00    +0.000 A 
ATOM     21  N   UNL     1     -50.709   0.895 -19.392  0.00  0.00    +0.000 NA
ATOM     22  C   UNL     1     -51.447   1.016 -20.504  0.00  0.00    +0.000 A 
ATOM     23  H   UNL     1     -53.146   2.844 -18.549  0.00  0.00    +0.000 HD
ENDROOT
BRANCH   7  24
ATOM     24  C   UNL     1     -47.845  -4.326 -22.556  0.00  0.00    +0.000 A 
ATOM     25  C   UNL     1     -46.715  -5.081 -22.894  0.00  0.00    +0.000 A 
ATOM     26  C   UNL     1     -46.842  -6.251 -23.646  0.00  0.00    +0.000 A 
ATOM     27  C   UNL     1     -48.104  -6.678 -24.065  0.00  0.00    +0.000 A 
ATOM     28  F   UNL     1     -48.227  -7.813 -24.794  0.00  0.00    +0.000 F 
ATOM     29  C   UNL     1     -49.239  -5.935 -23.732  0.00  0.00    +0.000 A 
ATOM     30  C   UNL     1     -49.118  -4.763 -22.980  0.00  0.00    +0.000 A 
ATOM     31  F   UNL     1     -50.240  -4.067 -22.673  0.00  0.00    +0.000 F 
ENDBRANCH   7  24
TORSDOF 1
