REMARK  Name = ZINC000031807721
REMARK  2 active torsions:
REMARK  status: ('A' for Active; 'I' for Inactive)
REMARK    1  A    between atoms: C_7  and  C_24
REMARK    2  A    between atoms: C_27  and  O_28
REMARK                            x       y       z     vdW  Elec       q    Type
REMARK                         _______ _______ _______ _____ _____    ______ ____
ROOT
ATOM      1  C   UNL     1     -47.416  -1.263 -24.324  0.00  0.00    +0.000 C 
ATOM      2  C   UNL     1     -48.402  -1.102 -23.219  0.00  0.00    +0.000 A 
ATOM      3  N   UNL     1     -49.374  -0.173 -23.223  0.00  0.00    +0.000 NA
ATOM      4  N   UNL     1     -50.067  -0.314 -22.104  0.00  0.00    +0.000 N 
ATOM      5  C   UNL     1     -49.573  -1.350 -21.387  0.00  0.00    +0.000 A 
ATOM      6  C   UNL     1     -48.477  -1.874 -22.072  0.00  0.00    +0.000 A 
ATOM      7  C   UNL     1     -47.580  -3.043 -21.774  0.00  0.00    +0.000 C 
ATOM      8  S   UNL     1     -47.295  -3.359 -20.005  0.00  0.00    +0.000 S 
ATOM      9  C   UNL     1     -48.964  -4.013 -19.763  0.00  0.00    +0.000 C 
ATOM     10  C   UNL     1     -49.877  -2.925 -19.334  0.00  0.00    +0.000 C 
ATOM     11  O   UNL     1     -50.445  -3.028 -18.217  0.00  0.00    +0.000 OA
ATOM     12  N   UNL     1     -50.167  -1.789 -20.154  0.00  0.00    +0.000 N 
ATOM     13  H   UNL     1     -50.891  -1.213 -19.818  0.00  0.00    +0.000 HD
ATOM     14  C   UNL     1     -51.206   0.501 -21.794  0.00  0.00    +0.000 A 
ATOM     15  N   UNL     1     -52.086   0.852 -22.779  0.00  0.00    +0.000 NA
ATOM     16  C   UNL     1     -53.168   1.654 -22.523  0.00  0.00    +0.000 A 
ATOM     17  N   UNL     1     -53.389   2.139 -21.264  0.00  0.00    +0.000 NA
ATOM     18  C   UNL     1     -52.511   1.804 -20.289  0.00  0.00    +0.000 A 
ATOM     19  N   UNL     1     -52.529   2.226 -19.019  0.00  0.00    +0.000 N 
ATOM     20  C   UNL     1     -51.408   1.652 -18.503  0.00  0.00    +0.000 A 
ATOM     21  N   UNL     1     -50.707   0.906 -19.401  0.00  0.00    +0.000 NA
ATOM     22  C   UNL     1     -51.440   1.015 -20.517  0.00  0.00    +0.000 A 
ATOM     23  H   UNL     1     -53.187   2.805 -18.571  0.00  0.00    +0.000 HD
ENDROOT
BRANCH   7  24
ATOM     24  C   UNL     1     -47.878  -4.283 -22.572  0.00  0.00    +0.000 A 
ATOM     25  C   UNL     1     -46.855  -5.212 -22.791  0.00  0.00    +0.000 A 
ATOM     26  C   UNL     1     -47.106  -6.378 -23.520  0.00  0.00    +0.000 A 
ATOM     27  C   UNL     1     -48.383  -6.622 -24.032  0.00  0.00    +0.000 A 
ATOM     28  C   UNL     1     -49.411  -5.701 -23.814  0.00  0.00    +0.000 A 
ATOM     29  C   UNL     1     -49.161  -4.535 -23.086  0.00  0.00    +0.000 A 
BRANCH  27  30
ATOM     30  O   UNL     1     -48.631  -7.780 -24.756  0.00  0.00    +0.000 OA
ATOM     31  H   UNL     1     -47.942  -8.398 -24.902  0.00  0.00    +0.000 HD
ENDBRANCH  27  30
ENDBRANCH   7  24
TORSDOF 2
