REMARK  Name = ZINC000253471412 PubChem-124891440
REMARK  7 active torsions:
REMARK  status: ('A' for Active; 'I' for Inactive)
REMARK    1  A    between atoms: C_5  and  C_6
REMARK    2  A    between atoms: C_6  and  C_7
REMARK    3  A    between atoms: C_6  and  C_17
REMARK    4  A    between atoms: C_7  and  C_8
REMARK    5  A    between atoms: C_9  and  C_10
REMARK    6  A    between atoms: C_9  and  N_32
REMARK    7  A    between atoms: C_10  and  C_11
REMARK                            x       y       z     vdW  Elec       q    Type
REMARK                         _______ _______ _______ _____ _____    ______ ____
ROOT
ATOM      1  C   UNL     1     -51.344   0.203 -21.230  0.00  0.00    +0.000 C 
ENDROOT
BRANCH   1   6
ATOM      2  C   UNL     1     -47.594  -1.084 -25.401  0.00  0.00    +0.000 C 
ATOM      3  C   UNL     1     -48.534  -0.740 -24.303  0.00  0.00    +0.000 A 
ATOM      4  C   UNL     1     -48.034  -0.383 -23.052  0.00  0.00    +0.000 A 
ATOM      5  C   UNL     1     -48.931  -0.064 -22.035  0.00  0.00    +0.000 A 
ATOM      6  C   UNL     1     -50.315  -0.104 -22.290  0.00  0.00    +0.000 A 
ATOM      7  C   UNL     1     -50.736  -0.479 -23.578  0.00  0.00    +0.000 A 
ATOM      8  O   UNL     1     -48.436   0.293 -20.786  0.00  0.00    +0.000 OA
ATOM      9  O   UNL     1     -51.965  -0.539 -23.855  0.00  0.00    +0.000 OA
ATOM     10  O   UNL     1     -49.844  -0.776 -24.520  0.00  0.00    +0.000 OA
ENDBRANCH   1   6
BRANCH   1  11
ATOM     11  C   UNL     1     -51.545  -0.938 -20.274  0.00  0.00    +0.000 A 
ATOM     12  C   UNL     1     -52.733  -1.698 -20.363  0.00  0.00    +0.000 A 
ATOM     13  C   UNL     1     -52.965  -2.772 -19.485  0.00  0.00    +0.000 A 
ATOM     14  C   UNL     1     -51.986  -3.049 -18.535  0.00  0.00    +0.000 A 
ATOM     15  C   UNL     1     -50.843  -2.322 -18.445  0.00  0.00    +0.000 A 
ATOM     16  C   UNL     1     -50.578  -1.254 -19.296  0.00  0.00    +0.000 A 
ATOM     17  C   UNL     1     -50.756  -3.926 -16.830  0.00  0.00    +0.000 C 
ATOM     18  O   UNL     1     -50.062  -2.818 -17.421  0.00  0.00    +0.000 OA
ATOM     19  O   UNL     1     -51.979  -4.037 -17.572  0.00  0.00    +0.000 OA
ENDBRANCH   1  11
BRANCH   1  20
ATOM     20  C   UNL     1     -51.108   1.543 -20.534  0.00  0.00    +0.000 C 
BRANCH  20  21
ATOM     21  C   UNL     1     -52.333   1.997 -19.816  0.00  0.00    +0.000 C 
ATOM     22  O   UNL     1     -53.369   2.301 -20.467  0.00  0.00    +0.000 OA
ATOM     23  N   UNL     1     -52.319   2.083 -18.392  0.00  0.00    +0.000 NA
BRANCH  23  24
ATOM     24  C   UNL     1     -53.482   2.513 -17.633  0.00  0.00    +0.000 C 
BRANCH  24  25
ATOM     25  C   UNL     1     -53.172   2.495 -16.144  0.00  0.00    +0.000 C 
BRANCH  25  26
ATOM     26  C   UNL     1     -52.346   3.673 -15.741  0.00  0.00    +0.000 A 
ATOM     27  C   UNL     1     -52.907   4.659 -14.922  0.00  0.00    +0.000 A 
ATOM     28  C   UNL     1     -52.139   5.757 -14.520  0.00  0.00    +0.000 A 
ATOM     29  C   UNL     1     -50.808   5.868 -14.932  0.00  0.00    +0.000 A 
ATOM     30  C   UNL     1     -50.242   4.879 -15.742  0.00  0.00    +0.000 A 
ATOM     31  C   UNL     1     -51.008   3.782 -16.144  0.00  0.00    +0.000 A 
ATOM     32  O   UNL     1     -50.047   6.958 -14.534  0.00  0.00    +0.000 OA
ENDBRANCH  25  26
ENDBRANCH  24  25
ENDBRANCH  23  24
ENDBRANCH  20  21
ENDBRANCH   1  20
TORSDOF 7
