REMARK  Name = ZINC000064971506 ZINC64971506 ChemDiv-G741-1139 MCULE-4305964791 MolPort-010-846-948 PubChem-53091021
REMARK  5 active torsions:
REMARK  status: ('A' for Active; 'I' for Inactive)
REMARK    1  A    between atoms: N_1  and  C_20
REMARK    2  A    between atoms: N_8  and  C_23
REMARK    3  A    between atoms: C_23  and  C_24
REMARK    4  A    between atoms: N_26  and  C_28
REMARK    5  A    between atoms: C_28  and  C_29
REMARK                            x       y       z     vdW  Elec       q    Type
REMARK                         _______ _______ _______ _____ _____    ______ ____
ROOT
ATOM      1  N   UNL     1     -50.270   0.390 -17.662  0.00  0.00    +0.000 N 
ATOM      2  C   UNL     1     -50.744   0.223 -19.006  0.00  0.00    +0.000 C 
ATOM      3  O   UNL     1     -51.466   1.109 -19.537  0.00  0.00    +0.000 OA
ATOM      4  N   UNL     1     -50.416  -0.982 -19.732  0.00  0.00    +0.000 N 
ATOM      5  C   UNL     1     -49.694  -2.031 -19.006  0.00  0.00    +0.000 C 
ATOM      6  C   UNL     1     -50.070  -3.393 -19.495  0.00  0.00    +0.000 C 
ATOM      7  O   UNL     1     -50.013  -4.369 -18.703  0.00  0.00    +0.000 OA
ATOM      8  N   UNL     1     -50.420  -3.590 -20.872  0.00  0.00    +0.000 N 
ATOM      9  C   UNL     1     -50.669  -2.442 -21.710  0.00  0.00    +0.000 A 
ATOM     10  C   UNL     1     -50.670  -1.146 -21.148  0.00  0.00    +0.000 A 
ATOM     11  C   UNL     1     -50.900  -0.040 -21.982  0.00  0.00    +0.000 A 
ATOM     12  C   UNL     1     -51.141  -0.210 -23.346  0.00  0.00    +0.000 A 
ATOM     13  C   UNL     1     -51.154  -1.490 -23.896  0.00  0.00    +0.000 A 
ATOM     14  C   UNL     1     -50.920  -2.600 -23.083  0.00  0.00    +0.000 A 
ATOM     15  H   UNL     1     -49.672  -0.311 -17.317  0.00  0.00    +0.000 HD
ENDROOT
BRANCH   1  20
ATOM     16  C   UNL     1     -51.421   4.631 -13.989  0.00  0.00    +0.000 C 
ATOM     17  C   UNL     1     -51.128   3.535 -14.951  0.00  0.00    +0.000 A 
ATOM     18  C   UNL     1     -50.240   2.516 -14.598  0.00  0.00    +0.000 A 
ATOM     19  C   UNL     1     -49.965   1.486 -15.503  0.00  0.00    +0.000 A 
ATOM     20  C   UNL     1     -50.574   1.469 -16.764  0.00  0.00    +0.000 A 
ATOM     21  C   UNL     1     -51.469   2.491 -17.109  0.00  0.00    +0.000 A 
ATOM     22  C   UNL     1     -51.746   3.522 -16.205  0.00  0.00    +0.000 A 
ENDBRANCH   1  20
BRANCH   8  23
ATOM     23  C   UNL     1     -50.430  -4.949 -21.415  0.00  0.00    +0.000 C 
BRANCH  23  24
ATOM     24  C   UNL     1     -49.155  -5.234 -22.141  0.00  0.00    +0.000 C 
ATOM     25  O   UNL     1     -49.138  -6.121 -23.036  0.00  0.00    +0.000 OA
ATOM     26  N   UNL     1     -47.967  -4.504 -21.819  0.00  0.00    +0.000 N 
ATOM     27  H   UNL     1     -47.945  -3.985 -20.982  0.00  0.00    +0.000 HD
BRANCH  26  28
ATOM     28  C   UNL     1     -46.788  -4.495 -22.675  0.00  0.00    +0.000 C 
BRANCH  28  29
ATOM     29  C   UNL     1     -47.031  -3.636 -23.884  0.00  0.00    +0.000 A 
ATOM     30  C   UNL     1     -47.213  -2.239 -23.785  0.00  0.00    +0.000 A 
ATOM     31  C   UNL     1     -47.136  -1.527 -22.472  0.00  0.00    +0.000 C 
ATOM     32  C   UNL     1     -47.478  -1.490 -24.941  0.00  0.00    +0.000 A 
ATOM     33  C   UNL     1     -47.569  -2.120 -26.189  0.00  0.00    +0.000 A 
ATOM     34  C   UNL     1     -47.393  -3.504 -26.287  0.00  0.00    +0.000 A 
ATOM     35  C   UNL     1     -47.122  -4.258 -25.139  0.00  0.00    +0.000 A 
ENDBRANCH  28  29
ENDBRANCH  26  28
ENDBRANCH  23  24
ENDBRANCH   8  23
TORSDOF 5
