REMARK  Name = ZINC000023755315 ZINC23755315 CSC028219200 MCULE-8163591876 MolPort-009-162-197 PubChem-31343882
REMARK  2 active torsions:
REMARK  status: ('A' for Active; 'I' for Inactive)
REMARK    1  A    between atoms: C_1  and  C_12
REMARK    2  A    between atoms: N_3  and  C_16
REMARK                            x       y       z     vdW  Elec       q    Type
REMARK                         _______ _______ _______ _____ _____    ______ ____
ROOT
ATOM      1  C   UNL     1     -52.325   1.975 -20.177  0.00  0.00    +0.000 C 
ATOM      2  O   UNL     1     -53.407   2.385 -20.674  0.00  0.00    +0.000 OA
ATOM      3  N   UNL     1     -52.005   2.347 -18.828  0.00  0.00    +0.000 N 
ATOM      4  H   UNL     1     -52.277   3.247 -18.536  0.00  0.00    +0.000 HD
ENDROOT
BRANCH   1  12
ATOM      5  C   UNL     1     -48.832  -1.585 -24.561  0.00  0.00    +0.000 C 
ATOM      6  N   UNL     1     -48.748  -0.941 -23.262  0.00  0.00    +0.000 N 
ATOM      7  N   UNL     1     -47.663  -0.939 -22.494  0.00  0.00    +0.000 NA
ATOM      8  C   UNL     1     -47.959  -0.245 -21.366  0.00  0.00    +0.000 A 
ATOM      9  C   UNL     1     -47.005  -0.016 -20.247  0.00  0.00    +0.000 C 
ATOM     10  C   UNL     1     -49.264   0.195 -21.439  0.00  0.00    +0.000 A 
ATOM     11  C   UNL     1     -50.075   0.934 -20.588  0.00  0.00    +0.000 A 
ATOM     12  C   UNL     1     -51.399   1.181 -21.012  0.00  0.00    +0.000 A 
ATOM     13  C   UNL     1     -51.825   0.695 -22.276  0.00  0.00    +0.000 A 
ATOM     14  N   UNL     1     -50.980  -0.026 -23.075  0.00  0.00    +0.000 NA
ATOM     15  C   UNL     1     -49.719  -0.261 -22.635  0.00  0.00    +0.000 A 
ENDBRANCH   1  12
BRANCH   3  16
ATOM     16  C   UNL     1     -51.325   1.526 -17.868  0.00  0.00    +0.000 A 
ATOM     17  C   UNL     1     -50.900   0.230 -18.203  0.00  0.00    +0.000 A 
ATOM     18  C   UNL     1     -50.259  -0.567 -17.253  0.00  0.00    +0.000 A 
ATOM     19  C   UNL     1     -50.071  -0.091 -15.950  0.00  0.00    +0.000 A 
ATOM     20  O   UNL     1     -49.461  -0.920 -15.005  0.00  0.00    +0.000 OA
ATOM     21  C   UNL     1     -49.289  -2.317 -15.258  0.00  0.00    +0.000 C 
ATOM     22  C   UNL     1     -48.901  -2.546 -16.721  0.00  0.00    +0.000 C 
ATOM     23  O   UNL     1     -49.795  -1.843 -17.586  0.00  0.00    +0.000 OA
ATOM     24  C   UNL     1     -50.494   1.194 -15.606  0.00  0.00    +0.000 A 
ATOM     25  C   UNL     1     -51.124   2.002 -16.559  0.00  0.00    +0.000 A 
ATOM     26 BR   UNL     1     -51.694   3.752 -16.043  0.00  0.00    +0.000 Br
ENDBRANCH   3  16
TORSDOF 2
