REMARK  Name = ZINC000031811572
REMARK  1 active torsions:
REMARK  status: ('A' for Active; 'I' for Inactive)
REMARK    1  A    between atoms: C_7  and  C_24
REMARK                            x       y       z     vdW  Elec       q    Type
REMARK                         _______ _______ _______ _____ _____    ______ ____
ROOT
ATOM      1  C   UNL     1     -47.593  -1.460 -24.313  0.00  0.00    +0.000 C 
ATOM      2  C   UNL     1     -48.533  -1.233 -23.181  0.00  0.00    +0.000 A 
ATOM      3  N   UNL     1     -49.481  -0.279 -23.184  0.00  0.00    +0.000 NA
ATOM      4  N   UNL     1     -50.129  -0.354 -22.033  0.00  0.00    +0.000 N 
ATOM      5  C   UNL     1     -49.630  -1.371 -21.293  0.00  0.00    +0.000 A 
ATOM      6  C   UNL     1     -48.580  -1.954 -22.000  0.00  0.00    +0.000 A 
ATOM      7  C   UNL     1     -47.683  -3.115 -21.674  0.00  0.00    +0.000 C 
ATOM      8  S   UNL     1     -47.368  -3.405 -19.906  0.00  0.00    +0.000 S 
ATOM      9  C   UNL     1     -49.048  -4.003 -19.619  0.00  0.00    +0.000 C 
ATOM     10  C   UNL     1     -49.914  -2.878 -19.188  0.00  0.00    +0.000 C 
ATOM     11  O   UNL     1     -50.453  -2.939 -18.053  0.00  0.00    +0.000 OA
ATOM     12  N   UNL     1     -50.188  -1.748 -20.022  0.00  0.00    +0.000 N 
ATOM     13  H   UNL     1     -50.867  -1.129 -19.669  0.00  0.00    +0.000 HD
ATOM     14  C   UNL     1     -51.235   0.502 -21.712  0.00  0.00    +0.000 A 
ATOM     15  N   UNL     1     -52.109   0.887 -22.690  0.00  0.00    +0.000 NA
ATOM     16  C   UNL     1     -53.159   1.727 -22.423  0.00  0.00    +0.000 A 
ATOM     17  N   UNL     1     -53.351   2.219 -21.162  0.00  0.00    +0.000 NA
ATOM     18  C   UNL     1     -52.478   1.850 -20.195  0.00  0.00    +0.000 A 
ATOM     19  N   UNL     1     -52.469   2.271 -18.924  0.00  0.00    +0.000 N 
ATOM     20  C   UNL     1     -51.366   1.656 -18.419  0.00  0.00    +0.000 A 
ATOM     21  N   UNL     1     -50.701   0.885 -19.323  0.00  0.00    +0.000 NA
ATOM     22  C   UNL     1     -51.438   1.023 -20.433  0.00  0.00    +0.000 A 
ATOM     23  H   UNL     1     -53.102   2.874 -18.470  0.00  0.00    +0.000 HD
ENDROOT
BRANCH   7  24
ATOM     24  C   UNL     1     -47.907  -4.370 -22.483  0.00  0.00    +0.000 A 
ATOM     25  C   UNL     1     -49.182  -4.748 -22.955  0.00  0.00    +0.000 A 
ATOM     26  F   UNL     1     -50.279  -3.990 -22.707  0.00  0.00    +0.000 F 
ATOM     27  C   UNL     1     -49.335  -5.923 -23.696  0.00  0.00    +0.000 A 
ATOM     28  C   UNL     1     -48.231  -6.730 -23.973  0.00  0.00    +0.000 A 
ATOM     29  C   UNL     1     -46.967  -6.364 -23.508  0.00  0.00    +0.000 A 
ATOM     30  C   UNL     1     -46.802  -5.191 -22.767  0.00  0.00    +0.000 A 
ATOM     31  F   UNL     1     -45.563  -4.857 -22.328  0.00  0.00    +0.000 F 
ENDBRANCH   7  24
TORSDOF 1
