REMARK  Name = ZINC000064605344 ZINC64605344 ChemDiv-J046-1135 MCULE-1856858286 MolPort-010-723-805 PubChem-50813209
REMARK  7 active torsions:
REMARK  status: ('A' for Active; 'I' for Inactive)
REMARK    1  A    between atoms: N_1  and  C_22
REMARK    2  A    between atoms: C_3  and  C_8
REMARK    3  A    between atoms: C_5  and  N_15
REMARK    4  A    between atoms: C_16  and  C_19
REMARK    5  A    between atoms: C_22  and  C_24
REMARK    6  A    between atoms: N_23  and  C_28
REMARK    7  A    between atoms: C_27  and  O_35
REMARK                            x       y       z     vdW  Elec       q    Type
REMARK                         _______ _______ _______ _____ _____    ______ ____
ROOT
ATOM      1  N   UNL     1     -46.726  -1.427 -20.231  0.00  0.00    +0.000 N 
ATOM      2  N   UNL     1     -46.670  -2.011 -21.430  0.00  0.00    +0.000 NA
ATOM      3  C   UNL     1     -47.507  -1.666 -22.445  0.00  0.00    +0.000 A 
ATOM      4  C   UNL     1     -48.460  -0.671 -22.220  0.00  0.00    +0.000 A 
ATOM      5  C   UNL     1     -48.538  -0.051 -20.972  0.00  0.00    +0.000 A 
ATOM      6  C   UNL     1     -47.647  -0.450 -19.969  0.00  0.00    +0.000 A 
ATOM      7  O   UNL     1     -47.700   0.091 -18.830  0.00  0.00    +0.000 OA
ENDROOT
BRANCH   3   8
ATOM      8  C   UNL     1     -47.406  -2.344 -23.755  0.00  0.00    +0.000 A 
ATOM      9  C   UNL     1     -47.292  -3.742 -23.816  0.00  0.00    +0.000 A 
ATOM     10  C   UNL     1     -47.193  -4.393 -25.049  0.00  0.00    +0.000 A 
ATOM     11  C   UNL     1     -47.212  -3.651 -26.234  0.00  0.00    +0.000 A 
ATOM     12  C   UNL     1     -47.109  -4.343 -27.545  0.00  0.00    +0.000 C 
ATOM     13  C   UNL     1     -47.329  -2.260 -26.185  0.00  0.00    +0.000 A 
ATOM     14  C   UNL     1     -47.425  -1.609 -24.952  0.00  0.00    +0.000 A 
ENDBRANCH   3   8
BRANCH   5  15
ATOM     15  N   UNL     1     -49.509   0.971 -20.697  0.00  0.00    +0.000 N 
ATOM     16  C   UNL     1     -50.934   0.866 -20.846  0.00  0.00    +0.000 C 
ATOM     17  O   UNL     1     -51.468  -0.193 -21.272  0.00  0.00    +0.000 OA
ATOM     18  H   UNL     1     -49.162   1.833 -20.371  0.00  0.00    +0.000 HD
BRANCH  16  19
ATOM     19  C   UNL     1     -51.807   2.026 -20.497  0.00  0.00    +0.000 C 
ATOM     20  C   UNL     1     -52.045   2.076 -19.000  0.00  0.00    +0.000 C 
ATOM     21  C   UNL     1     -53.134   1.932 -21.226  0.00  0.00    +0.000 C 
ENDBRANCH  16  19
ENDBRANCH   5  15
BRANCH   1  22
ATOM     22  C   UNL     1     -45.817  -1.891 -19.191  0.00  0.00    +0.000 C 
BRANCH  22  24
ATOM     23  N   UNL     1     -46.213  -4.375 -19.405  0.00  0.00    +0.000 N 
ATOM     24  C   UNL     1     -46.314  -3.177 -18.628  0.00  0.00    +0.000 C 
ATOM     25  O   UNL     1     -46.825  -3.196 -17.477  0.00  0.00    +0.000 OA
ATOM     26  H   UNL     1     -45.559  -4.387 -20.140  0.00  0.00    +0.000 HD
BRANCH  23  28
ATOM     27  C   UNL     1     -48.242  -5.753 -19.823  0.00  0.00    +0.000 A 
ATOM     28  C   UNL     1     -46.993  -5.557 -19.192  0.00  0.00    +0.000 A 
ATOM     29  C   UNL     1     -46.461  -6.568 -18.384  0.00  0.00    +0.000 A 
ATOM     30  C   UNL     1     -47.175  -7.746 -18.157  0.00  0.00    +0.000 A 
ATOM     31  C   UNL     1     -46.604  -8.804 -17.283  0.00  0.00    +0.000 C 
ATOM     32  C   UNL     1     -48.427  -7.928 -18.747  0.00  0.00    +0.000 A 
ATOM     33  C   UNL     1     -48.955  -6.939 -19.579  0.00  0.00    +0.000 A 
BRANCH  27  35
ATOM     34  C   UNL     1     -49.696  -3.807 -20.316  0.00  0.00    +0.000 C 
ATOM     35  O   UNL     1     -48.742  -4.787 -20.703  0.00  0.00    +0.000 OA
ENDBRANCH  27  35
ENDBRANCH  23  28
ENDBRANCH  22  24
ENDBRANCH   1  22
TORSDOF 7
