REMARK  Name = ZINC000002104886 ZINC02104886 PubChem-1759855
REMARK  3 active torsions:
REMARK  status: ('A' for Active; 'I' for Inactive)
REMARK    1  A    between atoms: C_12  and  C_20
REMARK    2  A    between atoms: N_27  and  C_31
REMARK    3  A    between atoms: C_36  and  O_37
REMARK                            x       y       z     vdW  Elec       q    Type
REMARK                         _______ _______ _______ _____ _____    ______ ____
ROOT
ATOM      1  C   UNL     1     -50.124   0.119 -22.672  0.00  0.00    +0.000 C 
ATOM      2  C   UNL     1     -50.025  -1.118 -21.831  0.00  0.00    +0.000 A 
ATOM      3  C   UNL     1     -49.417  -2.279 -22.338  0.00  0.00    +0.000 A 
ATOM      4  C   UNL     1     -48.879  -2.320 -23.632  0.00  0.00    +0.000 A 
ATOM      5  C   UNL     1     -48.265  -3.478 -24.108  0.00  0.00    +0.000 A 
ATOM      6  C   UNL     1     -48.203  -4.625 -23.296  0.00  0.00    +0.000 A 
ATOM      7  C   UNL     1     -48.750  -4.601 -21.998  0.00  0.00    +0.000 A 
ATOM      8  C   UNL     1     -49.349  -3.426 -21.515  0.00  0.00    +0.000 A 
ATOM      9  O   UNL     1     -49.859  -3.396 -20.288  0.00  0.00    +0.000 OA
ATOM     10  C   UNL     1     -50.437  -2.318 -19.770  0.00  0.00    +0.000 A 
ATOM     11  O   UNL     1     -50.922  -2.383 -18.609  0.00  0.00    +0.000 OA
ATOM     12  C   UNL     1     -50.520  -1.124 -20.514  0.00  0.00    +0.000 A 
ATOM     13  C   UNL     1     -48.625  -5.811 -21.108  0.00  0.00    +0.000 C 
ATOM     14  C   UNL     1     -48.489  -7.098 -21.919  0.00  0.00    +0.000 C 
ATOM     15  C   UNL     1     -47.340  -6.960 -22.911  0.00  0.00    +0.000 C 
ATOM     16  N   UNL     1     -47.579  -5.824 -23.795  0.00  0.00    +0.000 N 
ATOM     17  C   UNL     1     -47.195  -5.927 -25.200  0.00  0.00    +0.000 C 
ATOM     18  C   UNL     1     -46.669  -4.584 -25.695  0.00  0.00    +0.000 C 
ATOM     19  C   UNL     1     -47.742  -3.511 -25.516  0.00  0.00    +0.000 C 
ENDROOT
BRANCH  12  20
ATOM     20  C   UNL     1     -51.187   0.076 -19.961  0.00  0.00    +0.000 C 
ATOM     21  C   UNL     1     -50.917   0.676 -18.788  0.00  0.00    +0.000 C 
ATOM     22  C   UNL     1     -51.777   1.791 -18.351  0.00  0.00    +0.000 C 
ATOM     23  O   UNL     1     -52.683   2.241 -19.103  0.00  0.00    +0.000 OA
ATOM     24  N   UNL     1     -51.597   2.364 -17.057  0.00  0.00    +0.000 N 
ATOM     25  C   UNL     1     -50.599   1.880 -16.159  0.00  0.00    +0.000 C 
ATOM     26  O   UNL     1     -50.528   2.369 -15.000  0.00  0.00    +0.000 OA
ATOM     27  N   UNL     1     -49.694   0.836 -16.571  0.00  0.00    +0.000 N 
ATOM     28  C   UNL     1     -49.776   0.307 -17.910  0.00  0.00    +0.000 C 
ATOM     29  O   UNL     1     -48.841  -0.417 -18.350  0.00  0.00    +0.000 OA
ATOM     30  H   UNL     1     -52.175   3.110 -16.777  0.00  0.00    +0.000 HD
BRANCH  27  31
ATOM     31  C   UNL     1     -48.678   0.360 -15.668  0.00  0.00    +0.000 A 
ATOM     32  C   UNL     1     -47.516   1.120 -15.468  0.00  0.00    +0.000 A 
ATOM     33  C   UNL     1     -46.513   0.668 -14.607  0.00  0.00    +0.000 A 
ATOM     34  C   UNL     1     -46.663  -0.547 -13.938  0.00  0.00    +0.000 A 
ATOM     35  C   UNL     1     -47.818  -1.309 -14.126  0.00  0.00    +0.000 A 
ATOM     36  C   UNL     1     -48.835  -0.864 -14.988  0.00  0.00    +0.000 A 
BRANCH  36  37
ATOM     37  O   UNL     1     -50.004  -1.612 -15.170  0.00  0.00    +0.000 OA
ATOM     38  C   UNL     1     -50.232  -2.856 -14.521  0.00  0.00    +0.000 C 
ENDBRANCH  36  37
ENDBRANCH  27  31
ENDBRANCH  12  20
TORSDOF 3
