REMARK  Name = ZINC000012801021 ZINC12801021 MolPort-005-751-258 PubChem-25522332
REMARK  5 active torsions:
REMARK  status: ('A' for Active; 'I' for Inactive)
REMARK    1  A    between atoms: N_1  and  C_9
REMARK    2  A    between atoms: C_2  and  C_16
REMARK    3  A    between atoms: C_5  and  O_13
REMARK    4  A    between atoms: C_11  and  O_14
REMARK    5  A    between atoms: C_17  and  C_18
REMARK                            x       y       z     vdW  Elec       q    Type
REMARK                         _______ _______ _______ _____ _____    ______ ____
ROOT
ATOM      1  N   UNL     1     -52.213   2.619 -18.481  0.00  0.00    +0.000 N 
ATOM      2  C   UNL     1     -52.267   2.087 -19.813  0.00  0.00    +0.000 C 
ATOM      3  O   UNL     1     -53.352   2.149 -20.447  0.00  0.00    +0.000 OA
ATOM      4  H   UNL     1     -52.729   3.439 -18.307  0.00  0.00    +0.000 HD
ENDROOT
BRANCH   1   9
ATOM      5  C   UNL     1     -50.095   0.966 -15.185  0.00  0.00    +0.000 A 
ATOM      6  C   UNL     1     -50.700   2.228 -15.085  0.00  0.00    +0.000 A 
ATOM      7  C   UNL     1     -51.391   2.777 -16.169  0.00  0.00    +0.000 A 
ATOM      8  C   UNL     1     -52.019   4.119 -16.015  0.00  0.00    +0.000 C 
ATOM      9  C   UNL     1     -51.476   2.069 -17.378  0.00  0.00    +0.000 A 
ATOM     10  C   UNL     1     -50.888   0.799 -17.469  0.00  0.00    +0.000 A 
ATOM     11  C   UNL     1     -50.190   0.246 -16.385  0.00  0.00    +0.000 A 
BRANCH   5  13
ATOM     12  C   UNL     1     -49.898   0.422 -12.778  0.00  0.00    +0.000 C 
ATOM     13  O   UNL     1     -49.397   0.409 -14.108  0.00  0.00    +0.000 OA
ENDBRANCH   5  13
BRANCH  11  14
ATOM     14  O   UNL     1     -49.586  -1.012 -16.479  0.00  0.00    +0.000 OA
ATOM     15  C   UNL     1     -49.661  -1.815 -17.650  0.00  0.00    +0.000 C 
ENDBRANCH  11  14
ENDBRANCH   1   9
BRANCH   2  16
ATOM     16  C   UNL     1     -51.090   1.524 -20.494  0.00  0.00    +0.000 C 
ATOM     17  C   UNL     1     -51.075   0.300 -21.012  0.00  0.00    +0.000 C 
BRANCH  17  18
ATOM     18  C   UNL     1     -49.911  -0.268 -21.709  0.00  0.00    +0.000 A 
ATOM     19  C   UNL     1     -49.833  -0.795 -22.991  0.00  0.00    +0.000 A 
ATOM     20  C   UNL     1     -50.968  -0.887 -23.960  0.00  0.00    +0.000 C 
ATOM     21  N   UNL     1     -48.572  -1.223 -23.233  0.00  0.00    +0.000 N 
ATOM     22  C   UNL     1     -47.870  -0.962 -22.104  0.00  0.00    +0.000 A 
ATOM     23  C   UNL     1     -46.422  -1.260 -21.901  0.00  0.00    +0.000 C 
ATOM     24  C   UNL     1     -48.660  -0.371 -21.135  0.00  0.00    +0.000 A 
ATOM     25  C   UNL     1     -48.066  -1.834 -24.441  0.00  0.00    +0.000 A 
ATOM     26  N   UNL     1     -47.701  -1.136 -25.534  0.00  0.00    +0.000 NA
ATOM     27  O   UNL     1     -47.305  -2.006 -26.413  0.00  0.00    +0.000 OA
ATOM     28  C   UNL     1     -47.399  -3.222 -25.937  0.00  0.00    +0.000 A 
ATOM     29  C   UNL     1     -47.026  -4.447 -26.691  0.00  0.00    +0.000 C 
ATOM     30  C   UNL     1     -47.892  -3.194 -24.648  0.00  0.00    +0.000 A 
ENDBRANCH  17  18
ENDBRANCH   2  16
TORSDOF 5
