REMARK  Name = ZINC000032760773
REMARK  3 active torsions:
REMARK  status: ('A' for Active; 'I' for Inactive)
REMARK    1  A    between atoms: N_2  and  C_17
REMARK    2  A    between atoms: C_3  and  C_5
REMARK    3  A    between atoms: C_17  and  C_18
REMARK                            x       y       z     vdW  Elec       q    Type
REMARK                         _______ _______ _______ _____ _____    ______ ____
ROOT
ATOM      1  C   UNL     1     -48.721  -2.969 -20.026  0.00  0.00    +0.000 C 
ATOM      2  N   UNL     1     -49.267  -1.623 -19.905  0.00  0.00    +0.000 N 
ATOM      3  C   UNL     1     -50.294  -1.362 -18.929  0.00  0.00    +0.000 C 
ATOM      4  O   UNL     1     -50.605  -2.266 -18.105  0.00  0.00    +0.000 OA
ENDROOT
BRANCH   3   5
ATOM      5  C   UNL     1     -51.014  -0.064 -18.878  0.00  0.00    +0.000 A 
ATOM      6  C   UNL     1     -51.837   0.295 -19.952  0.00  0.00    +0.000 A 
ATOM      7  C   UNL     1     -52.553   1.491 -19.924  0.00  0.00    +0.000 A 
ATOM      8  O   UNL     1     -53.286   1.806 -20.897  0.00  0.00    +0.000 OA
ATOM      9  N   UNL     1     -52.461   2.316 -18.850  0.00  0.00    +0.000 N 
ATOM     10  C   UNL     1     -51.680   2.010 -17.782  0.00  0.00    +0.000 A 
ATOM     11  C   UNL     1     -51.612   2.893 -16.699  0.00  0.00    +0.000 A 
ATOM     12  C   UNL     1     -50.803   2.594 -15.600  0.00  0.00    +0.000 A 
ATOM     13  C   UNL     1     -50.058   1.413 -15.579  0.00  0.00    +0.000 A 
ATOM     14  C   UNL     1     -50.121   0.525 -16.656  0.00  0.00    +0.000 A 
ATOM     15  C   UNL     1     -50.934   0.806 -17.766  0.00  0.00    +0.000 A 
ATOM     16  H   UNL     1     -52.974   3.157 -18.845  0.00  0.00    +0.000 HD
ENDBRANCH   3   5
BRANCH   2  17
ATOM     17  C   UNL     1     -48.571  -0.529 -20.577  0.00  0.00    +0.000 C 
BRANCH  17  18
ATOM     18  C   UNL     1     -48.635  -0.683 -22.061  0.00  0.00    +0.000 A 
ATOM     19  C   UNL     1     -49.671  -0.087 -22.789  0.00  0.00    +0.000 A 
ATOM     20  C   UNL     1     -49.735  -0.246 -24.176  0.00  0.00    +0.000 A 
ATOM     21  C   UNL     1     -48.765  -1.004 -24.839  0.00  0.00    +0.000 A 
ATOM     22  F   UNL     1     -48.832  -1.155 -26.184  0.00  0.00    +0.000 F 
ATOM     23  C   UNL     1     -47.730  -1.605 -24.112  0.00  0.00    +0.000 A 
ATOM     24  F   UNL     1     -46.787  -2.343 -24.748  0.00  0.00    +0.000 F 
ATOM     25  C   UNL     1     -47.667  -1.445 -22.725  0.00  0.00    +0.000 A 
ENDBRANCH  17  18
ENDBRANCH   2  17
TORSDOF 3
