REMARK  Name = ZINC000096181381 ZINC96181381 PubChem-97457251
REMARK  4 active torsions:
REMARK  status: ('A' for Active; 'I' for Inactive)
REMARK    1  A    between atoms: C_5  and  C_8
REMARK    2  A    between atoms: C_9  and  C_13
REMARK    3  A    between atoms: C_14  and  C_15
REMARK    4  A    between atoms: C_14  and  N_24
REMARK                            x       y       z     vdW  Elec       q    Type
REMARK                         _______ _______ _______ _____ _____    ______ ____
ROOT
ATOM      1  C   UNL     1     -50.155   0.206 -20.028  0.00  0.00    +0.000 C 
ATOM      2  C   UNL     1     -51.684   0.034 -19.953  0.00  0.00    +0.000 C 
ATOM      3  C   UNL     1     -51.984  -1.012 -18.871  0.00  0.00    +0.000 C 
ATOM      4  C   UNL     1     -50.641  -1.427 -18.421  0.00  0.00    +0.000 C 
ATOM      5  C   UNL     1     -48.205  -0.779 -18.685  0.00  0.00    +0.000 C 
ATOM      6  O   UNL     1     -50.440  -2.280 -17.517  0.00  0.00    +0.000 OA
ATOM      7  N   UNL     1     -49.599  -0.756 -19.097  0.00  0.00    +0.000 N 
ENDROOT
BRANCH   1  12
ATOM      8  C   UNL     1     -48.237  -0.657 -25.417  0.00  0.00    +0.000 C 
ATOM      9  C   UNL     1     -48.730  -0.444 -24.032  0.00  0.00    +0.000 A 
ATOM     10  C   UNL     1     -49.321  -1.498 -23.331  0.00  0.00    +0.000 A 
ATOM     11  C   UNL     1     -49.786  -1.298 -22.028  0.00  0.00    +0.000 A 
ATOM     12  C   UNL     1     -49.659  -0.038 -21.421  0.00  0.00    +0.000 A 
ATOM     13  C   UNL     1     -49.069   1.014 -22.128  0.00  0.00    +0.000 A 
ATOM     14  C   UNL     1     -48.605   0.812 -23.432  0.00  0.00    +0.000 A 
ENDBRANCH   1  12
BRANCH   2  15
ATOM     15  C   UNL     1     -52.343   1.334 -19.628  0.00  0.00    +0.000 C 
ATOM     16  O   UNL     1     -53.181   1.819 -20.433  0.00  0.00    +0.000 OA
ATOM     17  N   UNL     1     -52.020   2.020 -18.416  0.00  0.00    +0.000 NA
BRANCH  17  18
ATOM     18  C   UNL     1     -52.633   3.290 -18.062  0.00  0.00    +0.000 C 
BRANCH  18  19
ATOM     19  C   UNL     1     -52.093   3.760 -16.758  0.00  0.00    +0.000 A 
ATOM     20  C   UNL     1     -50.939   4.550 -16.720  0.00  0.00    +0.000 A 
ATOM     21  C   UNL     1     -50.418   4.970 -15.493  0.00  0.00    +0.000 A 
ATOM     22  C   UNL     1     -51.048   4.597 -14.301  0.00  0.00    +0.000 A 
ATOM     23  C   UNL     1     -52.197   3.801 -14.337  0.00  0.00    +0.000 A 
ATOM     24  C   UNL     1     -52.718   3.380 -15.564  0.00  0.00    +0.000 A 
ENDBRANCH  18  19
ENDBRANCH  17  18
ENDBRANCH   2  15
TORSDOF 4
