REMARK  Name = ZINC000003420494 ZINC03420494 PubChem-2539725
REMARK  7 active torsions:
REMARK  status: ('A' for Active; 'I' for Inactive)
REMARK    1  A    between atoms: C_2  and  C_3
REMARK    2  A    between atoms: C_2  and  O_23
REMARK    3  A    between atoms: C_4  and  N_25
REMARK    4  A    between atoms: C_6  and  N_26
REMARK    5  A    between atoms: C_9  and  O_20
REMARK    6  A    between atoms: C_11  and  C_12
REMARK    7  A    between atoms: C_11  and  O_23
REMARK                            x       y       z     vdW  Elec       q    Type
REMARK                         _______ _______ _______ _____ _____    ______ ____
ROOT
ATOM      1  C   UNL     1     -52.870   1.554 -19.532  0.00  0.00    +0.000 C 
ATOM      2  O   UNL     1     -53.263   2.324 -20.449  0.00  0.00    +0.000 OA
ATOM      3  N   UNL     1     -52.390   2.129 -18.308  0.00  0.00    +0.000 NA
ENDROOT
BRANCH   3   4
ATOM      4  C   UNL     1     -51.668   1.469 -17.257  0.00  0.00    +0.000 A 
ATOM      5  C   UNL     1     -51.109   0.196 -17.441  0.00  0.00    +0.000 A 
ATOM      6  C   UNL     1     -50.381  -0.429 -16.422  0.00  0.00    +0.000 A 
ATOM      7  C   UNL     1     -50.205   0.237 -15.203  0.00  0.00    +0.000 A 
ATOM      8  C   UNL     1     -50.747   1.509 -15.010  0.00  0.00    +0.000 A 
ATOM      9  C   UNL     1     -51.477   2.135 -16.035  0.00  0.00    +0.000 A 
BRANCH   6  12
ATOM     10  O   UNL     1     -49.173  -2.297 -15.726  0.00  0.00    +0.000 OA
ATOM     11  O   UNL     1     -49.989  -2.374 -17.837  0.00  0.00    +0.000 OA
ATOM     12  N   UNL     1     -49.821  -1.732 -16.631  0.00  0.00    +0.000 N 
ENDBRANCH   6  12
BRANCH   9  14
ATOM     13  C   UNL     1     -51.872   4.152 -14.653  0.00  0.00    +0.000 C 
ATOM     14  O   UNL     1     -52.021   3.412 -15.858  0.00  0.00    +0.000 OA
ENDBRANCH   9  14
ENDBRANCH   3   4
BRANCH   1  16
ATOM     15  C   UNL     1     -54.307  -0.399 -20.210  0.00  0.00    +0.000 C 
ATOM     16  C   UNL     1     -52.941   0.068 -19.730  0.00  0.00    +0.000 C 
BRANCH  16  17
ATOM     17  O   UNL     1     -51.878  -0.420 -20.551  0.00  0.00    +0.000 OA
BRANCH  17  18
ATOM     18  C   UNL     1     -51.745  -0.165 -21.922  0.00  0.00    +0.000 C 
ATOM     19  O   UNL     1     -52.626   0.485 -22.548  0.00  0.00    +0.000 OA
BRANCH  18  20
ATOM     20  C   UNL     1     -50.567  -0.669 -22.634  0.00  0.00    +0.000 A 
ATOM     21  C   UNL     1     -50.319  -0.490 -24.001  0.00  0.00    +0.000 A 
ATOM     22  C   UNL     1     -49.111  -1.094 -24.348  0.00  0.00    +0.000 A 
ATOM     23  C   UNL     1     -48.460  -1.699 -23.342  0.00  0.00    +0.000 A 
ATOM     24  C   UNL     1     -47.191  -2.327 -23.734  0.00  0.00    +0.000 C 
ATOM     25  C   UNL     1     -47.128  -2.009 -25.244  0.00  0.00    +0.000 C 
ATOM     26  C   UNL     1     -48.391  -1.203 -25.628  0.00  0.00    +0.000 C 
ATOM     27  S   UNL     1     -49.308  -1.554 -21.906  0.00  0.00    +0.000 S 
ENDBRANCH  18  20
ENDBRANCH  17  18
ENDBRANCH  16  17
ENDBRANCH   1  16
TORSDOF 7
