REMARK  Name = ZINC000020135468 ZINC20135468 PubChem-92655510
REMARK  3 active torsions:
REMARK  status: ('A' for Active; 'I' for Inactive)
REMARK    1  A    between atoms: C_2  and  O_19
REMARK    2  A    between atoms: C_6  and  C_8
REMARK    3  A    between atoms: C_10  and  C_13
REMARK                            x       y       z     vdW  Elec       q    Type
REMARK                         _______ _______ _______ _____ _____    ______ ____
ROOT
ATOM      1  C   UNL     1     -52.883   2.675 -19.341  0.00  0.00    +0.000 C 
ATOM      2  C   UNL     1     -51.682   0.443 -19.020  0.00  0.00    +0.000 C 
ATOM      3  C   UNL     1     -51.408  -1.220 -20.789  0.00  0.00    +0.000 C 
ATOM      4  C   UNL     1     -51.240  -2.316 -19.727  0.00  0.00    +0.000 C 
ATOM      5  C   UNL     1     -50.682  -1.750 -18.460  0.00  0.00    +0.000 C 
ATOM      6  O   UNL     1     -53.151   2.445 -20.552  0.00  0.00    +0.000 OA
ATOM      7  O   UNL     1     -49.991  -2.470 -17.695  0.00  0.00    +0.000 OA
ATOM      8  N   UNL     1     -52.157   1.714 -18.561  0.00  0.00    +0.000 NA
ATOM      9  N   UNL     1     -51.929   0.035 -20.232  0.00  0.00    +0.000 NA
ATOM     10  N   UNL     1     -50.956  -0.393 -18.115  0.00  0.00    +0.000 NA
ENDROOT
BRANCH   3  11
ATOM     11  C   UNL     1     -50.145  -0.981 -21.559  0.00  0.00    +0.000 A 
ATOM     12  C   UNL     1     -48.992  -0.479 -20.936  0.00  0.00    +0.000 A 
ATOM     13  C   UNL     1     -47.830  -0.255 -21.681  0.00  0.00    +0.000 A 
ATOM     14  C   UNL     1     -47.816  -0.529 -23.052  0.00  0.00    +0.000 A 
ATOM     15  C   UNL     1     -48.964  -1.025 -23.677  0.00  0.00    +0.000 A 
ATOM     16  C   UNL     1     -50.126  -1.249 -22.933  0.00  0.00    +0.000 A 
ATOM     17  F   UNL     1     -48.950  -1.289 -25.006  0.00  0.00    +0.000 F 
ENDBRANCH   3  11
BRANCH   1  22
ATOM     18  C   UNL     1     -53.434   5.413 -16.783  0.00  0.00    +0.000 A 
ATOM     19  C   UNL     1     -54.140   6.350 -17.544  0.00  0.00    +0.000 A 
ATOM     20  C   UNL     1     -54.436   6.090 -18.885  0.00  0.00    +0.000 A 
ATOM     21  C   UNL     1     -54.026   4.891 -19.472  0.00  0.00    +0.000 A 
ATOM     22  C   UNL     1     -53.316   3.941 -18.724  0.00  0.00    +0.000 A 
ATOM     23  C   UNL     1     -53.024   4.209 -17.379  0.00  0.00    +0.000 A 
BRANCH  18  25
ATOM     24  C   UNL     1     -52.443   4.807 -14.600  0.00  0.00    +0.000 C 
ATOM     25  O   UNL     1     -53.153   5.702 -15.445  0.00  0.00    +0.000 OA
ENDBRANCH  18  25
ENDBRANCH   1  22
TORSDOF 3
