REMARK  Name = ZINC000067847368 ZINC67847368 MCULE-8338375840 MolPort-016-608-745 PubChem-50964388
REMARK  5 active torsions:
REMARK  status: ('A' for Active; 'I' for Inactive)
REMARK    1  A    between atoms: C_1  and  C_9
REMARK    2  A    between atoms: C_3  and  C_22
REMARK    3  A    between atoms: N_5  and  C_15
REMARK    4  A    between atoms: C_22  and  C_23
REMARK    5  A    between atoms: C_23  and  C_24
REMARK                            x       y       z     vdW  Elec       q    Type
REMARK                         _______ _______ _______ _____ _____    ______ ____
ROOT
ATOM      1  C   UNL     1     -50.278  -1.520 -19.907  0.00  0.00    +0.000 A 
ATOM      2  N   UNL     1     -49.898  -2.421 -18.977  0.00  0.00    +0.000 NA
ATOM      3  C   UNL     1     -49.444  -3.441 -19.734  0.00  0.00    +0.000 A 
ATOM      4  N   UNL     1     -49.544  -3.199 -21.054  0.00  0.00    +0.000 NA
ATOM      5  N   UNL     1     -50.059  -1.987 -21.160  0.00  0.00    +0.000 N 
ENDROOT
BRANCH   1   9
ATOM      6  C   UNL     1     -51.134   2.118 -16.613  0.00  0.00    +0.000 C 
ATOM      7  C   UNL     1     -51.387   1.493 -17.938  0.00  0.00    +0.000 A 
ATOM      8  C   UNL     1     -50.715   0.322 -18.295  0.00  0.00    +0.000 A 
ATOM      9  C   UNL     1     -50.951  -0.256 -19.548  0.00  0.00    +0.000 A 
ATOM     10  C   UNL     1     -51.887   0.337 -20.405  0.00  0.00    +0.000 A 
ATOM     11  C   UNL     1     -52.538   1.508 -20.013  0.00  0.00    +0.000 A 
ATOM     12  O   UNL     1     -53.370   2.051 -20.783  0.00  0.00    +0.000 OA
ATOM     13  N   UNL     1     -52.276   2.058 -18.797  0.00  0.00    +0.000 N 
ATOM     14  H   UNL     1     -52.740   2.885 -18.534  0.00  0.00    +0.000 HD
ENDBRANCH   1   9
BRANCH   5  15
ATOM     15  C   UNL     1     -50.218  -1.319 -22.422  0.00  0.00    +0.000 A 
ATOM     16  C   UNL     1     -50.883  -1.965 -23.473  0.00  0.00    +0.000 A 
ATOM     17  C   UNL     1     -51.004  -1.345 -24.720  0.00  0.00    +0.000 A 
ATOM     18  C   UNL     1     -51.722  -2.033 -25.824  0.00  0.00    +0.000 C 
ATOM     19  C   UNL     1     -50.446  -0.081 -24.930  0.00  0.00    +0.000 A 
ATOM     20  C   UNL     1     -49.762   0.561 -23.894  0.00  0.00    +0.000 A 
ATOM     21  C   UNL     1     -49.642  -0.059 -22.647  0.00  0.00    +0.000 A 
ENDBRANCH   5  15
BRANCH   3  22
ATOM     22  C   UNL     1     -48.944  -4.724 -19.170  0.00  0.00    +0.000 C 
BRANCH  22  23
ATOM     23  C   UNL     1     -49.105  -5.833 -20.195  0.00  0.00    +0.000 C 
BRANCH  23  24
ATOM     24  C   UNL     1     -48.437  -7.080 -19.728  0.00  0.00    +0.000 A 
ATOM     25  C   UNL     1     -47.556  -7.754 -20.580  0.00  0.00    +0.000 A 
ATOM     26  C   UNL     1     -46.935  -8.934 -20.158  0.00  0.00    +0.000 A 
ATOM     27  C   UNL     1     -47.198  -9.444 -18.883  0.00  0.00    +0.000 A 
ATOM     28  C   UNL     1     -48.084  -8.777 -18.031  0.00  0.00    +0.000 A 
ATOM     29  C   UNL     1     -48.705  -7.597 -18.453  0.00  0.00    +0.000 A 
ENDBRANCH  23  24
ENDBRANCH  22  23
ENDBRANCH   3  22
TORSDOF 5
