REMARK  Name = ZINC000096181797 ZINC96181797 PubChem-97457627
REMARK  2 active torsions:
REMARK  status: ('A' for Active; 'I' for Inactive)
REMARK    1  A    between atoms: C_5  and  C_6
REMARK    2  A    between atoms: C_7  and  C_11
REMARK                            x       y       z     vdW  Elec       q    Type
REMARK                         _______ _______ _______ _____ _____    ______ ____
ROOT
ATOM      1  C   UNL     1     -51.772   0.326 -20.529  0.00  0.00    +0.000 C 
ATOM      2  C   UNL     1     -50.234   0.246 -20.455  0.00  0.00    +0.000 C 
ATOM      3  C   UNL     1     -50.705  -1.452 -18.658  0.00  0.00    +0.000 C 
ATOM      4  C   UNL     1     -52.168  -1.294 -18.920  0.00  0.00    +0.000 C 
ATOM      5  C   UNL     1     -48.375  -0.585 -18.969  0.00  0.00    +0.000 C 
ATOM      6  N   UNL     1     -49.779  -0.610 -19.355  0.00  0.00    +0.000 N 
ATOM      7  O   UNL     1     -50.308  -2.271 -17.788  0.00  0.00    +0.000 OA
ATOM      8  O   UNL     1     -52.406  -0.913 -20.258  0.00  0.00    +0.000 OA
ENDROOT
BRANCH   1  13
ATOM      9  C   UNL     1     -52.542   4.980 -14.737  0.00  0.00    +0.000 C 
ATOM     10  C   UNL     1     -52.632   4.234 -16.020  0.00  0.00    +0.000 A 
ATOM     11  C   UNL     1     -51.843   3.157 -16.376  0.00  0.00    +0.000 A 
ATOM     12  C   UNL     1     -52.340   2.864 -17.632  0.00  0.00    +0.000 A 
ATOM     13  C   UNL     1     -52.353   1.478 -19.761  0.00  0.00    +0.000 C 
ATOM     14  N   UNL     1     -53.335   3.702 -17.978  0.00  0.00    +0.000 NA
ATOM     15  N   UNL     1     -51.853   1.802 -18.458  0.00  0.00    +0.000 NA
ATOM     16  O   UNL     1     -53.482   4.516 -16.977  0.00  0.00    +0.000 OA
ATOM     17  O   UNL     1     -53.304   2.132 -20.267  0.00  0.00    +0.000 OA
ENDBRANCH   1  13
BRANCH   2  18
ATOM     18  C   UNL     1     -49.669  -0.223 -21.762  0.00  0.00    +0.000 A 
ATOM     19  C   UNL     1     -48.845   0.637 -22.497  0.00  0.00    +0.000 A 
ATOM     20  C   UNL     1     -48.301   0.218 -23.715  0.00  0.00    +0.000 A 
ATOM     21  C   UNL     1     -48.577  -1.063 -24.201  0.00  0.00    +0.000 A 
ATOM     22  C   UNL     1     -49.397  -1.927 -23.470  0.00  0.00    +0.000 A 
ATOM     23  C   UNL     1     -49.942  -1.509 -22.252  0.00  0.00    +0.000 A 
ATOM     24  F   UNL     1     -48.049  -1.467 -25.381  0.00  0.00    +0.000 F 
ENDBRANCH   2  18
TORSDOF 2
