REMARK  Name = ZINC000096181390
REMARK  4 active torsions:
REMARK  status: ('A' for Active; 'I' for Inactive)
REMARK    1  A    between atoms: C_5  and  C_6
REMARK    2  A    between atoms: C_6  and  N_20
REMARK    3  A    between atoms: C_7  and  C_8
REMARK    4  A    between atoms: C_12  and  C_13
REMARK                            x       y       z     vdW  Elec       q    Type
REMARK                         _______ _______ _______ _____ _____    ______ ____
ROOT
ATOM      1  C   UNL     1     -51.687   0.033 -19.921  0.00  0.00    +0.000 C 
ATOM      2  C   UNL     1     -51.991  -1.005 -18.833  0.00  0.00    +0.000 C 
ATOM      3  C   UNL     1     -50.649  -1.448 -18.406  0.00  0.00    +0.000 C 
ATOM      4  C   UNL     1     -48.203  -0.858 -18.713  0.00  0.00    +0.000 C 
ATOM      5  C   UNL     1     -50.157   0.193 -20.003  0.00  0.00    +0.000 C 
ATOM      6  N   UNL     1     -49.605  -0.794 -19.094  0.00  0.00    +0.000 N 
ATOM      7  O   UNL     1     -50.450  -2.309 -17.509  0.00  0.00    +0.000 OA
ENDROOT
BRANCH   5   8
ATOM      8  C   UNL     1     -49.668  -0.028 -21.402  0.00  0.00    +0.000 A 
ATOM      9  C   UNL     1     -49.021   1.016 -22.070  0.00  0.00    +0.000 A 
ATOM     10  C   UNL     1     -48.556   0.835 -23.376  0.00  0.00    +0.000 A 
ATOM     11  C   UNL     1     -48.739  -0.393 -24.019  0.00  0.00    +0.000 A 
ATOM     12  C   UNL     1     -48.245  -0.586 -25.407  0.00  0.00    +0.000 C 
ATOM     13  C   UNL     1     -49.385  -1.440 -23.357  0.00  0.00    +0.000 A 
ATOM     14  C   UNL     1     -49.850  -1.260 -22.051  0.00  0.00    +0.000 A 
ENDBRANCH   5   8
BRANCH   1  15
ATOM     15  C   UNL     1     -52.336   1.339 -19.602  0.00  0.00    +0.000 C 
ATOM     16  N   UNL     1     -51.994   2.037 -18.402  0.00  0.00    +0.000 NA
ATOM     17  O   UNL     1     -53.185   1.817 -20.399  0.00  0.00    +0.000 OA
BRANCH  16  18
ATOM     18  C   UNL     1     -52.597   3.313 -18.054  0.00  0.00    +0.000 C 
BRANCH  18  23
ATOM     19  C   UNL     1     -49.517   5.384 -14.843  0.00  0.00    +0.000 C 
ATOM     20  C   UNL     1     -50.707   4.673 -15.380  0.00  0.00    +0.000 A 
ATOM     21  C   UNL     1     -51.751   4.187 -14.618  0.00  0.00    +0.000 A 
ATOM     22  C   UNL     1     -52.624   3.605 -15.525  0.00  0.00    +0.000 A 
ATOM     23  C   UNL     1     -52.037   3.791 -16.762  0.00  0.00    +0.000 A 
ATOM     24  O   UNL     1     -50.898   4.424 -16.650  0.00  0.00    +0.000 OA
ENDBRANCH  18  23
ENDBRANCH  16  18
ENDBRANCH   1  15
TORSDOF 4
