REMARK  Name = ZINC000169781247 ChemDiv-S640-0707 MolPort-044-356-519 PubChem-91923255
REMARK  6 active torsions:
REMARK  status: ('A' for Active; 'I' for Inactive)
REMARK    1  A    between atoms: C_2  and  C_3
REMARK    2  A    between atoms: C_5  and  C_6
REMARK    3  A    between atoms: C_6  and  C_7
REMARK    4  A    between atoms: C_7  and  C_8
REMARK    5  A    between atoms: C_10  and  O_24
REMARK    6  A    between atoms: C_13  and  C_14
REMARK                            x       y       z     vdW  Elec       q    Type
REMARK                         _______ _______ _______ _____ _____    ______ ____
ROOT
ATOM      1  C   UNL     1     -51.425   0.475 -20.460  0.00  0.00    +0.000 C 
ATOM      2  C   UNL     1     -51.316  -0.700 -19.500  0.00  0.00    +0.000 C 
ATOM      3  C   UNL     1     -49.531  -1.478 -17.883  0.00  0.00    +0.000 C 
ATOM      4  C   UNL     1     -49.165   0.421 -19.524  0.00  0.00    +0.000 C 
ATOM      5  C   UNL     1     -50.017   1.051 -20.613  0.00  0.00    +0.000 C 
ATOM      6  N   UNL     1     -49.982  -0.625 -18.941  0.00  0.00    +0.000 N 
ATOM      7  O   UNL     1     -50.223  -2.473 -17.536  0.00  0.00    +0.000 OA
ENDROOT
BRANCH   5   8
ATOM      8  C   UNL     1     -49.467   0.708 -21.959  0.00  0.00    +0.000 A 
ATOM      9  C   UNL     1     -48.822  -0.316 -23.652  0.00  0.00    +0.000 A 
ATOM     10  C   UNL     1     -48.502  -1.391 -24.626  0.00  0.00    +0.000 C 
ATOM     11  N   UNL     1     -49.352  -0.548 -22.436  0.00  0.00    +0.000 NA
ATOM     12  N   UNL     1     -48.628   0.994 -23.898  0.00  0.00    +0.000 NA
ATOM     13  O   UNL     1     -49.040   1.595 -22.823  0.00  0.00    +0.000 OA
ENDBRANCH   5   8
BRANCH   1  15
ATOM     14  C   UNL     1     -53.043   3.047 -18.040  0.00  0.00    +0.000 C 
ATOM     15  C   UNL     1     -52.349   1.516 -19.917  0.00  0.00    +0.000 C 
ATOM     16  N   UNL     1     -52.177   2.018 -18.590  0.00  0.00    +0.000 NA
ATOM     17  O   UNL     1     -53.270   1.962 -20.651  0.00  0.00    +0.000 OA
ENDBRANCH   1  15
BRANCH   3  18
ATOM     18  C   UNL     1     -48.246  -1.191 -17.169  0.00  0.00    +0.000 C 
BRANCH  18  19
ATOM     19  C   UNL     1     -48.499  -0.812 -15.715  0.00  0.00    +0.000 C 
BRANCH  19  20
ATOM     20  C   UNL     1     -49.150   0.529 -15.570  0.00  0.00    +0.000 A 
ATOM     21  C   UNL     1     -49.627   1.051 -14.382  0.00  0.00    +0.000 A 
ATOM     22  C   UNL     1     -50.128   2.269 -14.797  0.00  0.00    +0.000 A 
ATOM     23  N   UNL     1     -49.951   2.448 -16.120  0.00  0.00    +0.000 NA
ATOM     24  O   UNL     1     -49.358   1.377 -16.551  0.00  0.00    +0.000 OA
BRANCH  22  26
ATOM     25  C   UNL     1     -51.329   4.386 -14.458  0.00  0.00    +0.000 C 
ATOM     26  O   UNL     1     -50.742   3.194 -13.955  0.00  0.00    +0.000 OA
ENDBRANCH  22  26
ENDBRANCH  19  20
ENDBRANCH  18  19
ENDBRANCH   3  18
TORSDOF 6
