REMARK  Name = ZINC000005372517 ZINC05372517 PubChem-92261927
REMARK  9 active torsions:
REMARK  status: ('A' for Active; 'I' for Inactive)
REMARK    1  A    between atoms: N_14  and  C_20
REMARK    2  A    between atoms: C_20  and  C_21
REMARK    3  A    between atoms: C_21  and  O_22
REMARK    4  A    between atoms: C_21  and  C_24
REMARK    5  A    between atoms: C_24  and  O_25
REMARK    6  A    between atoms: C_24  and  C_27
REMARK    7  A    between atoms: C_27  and  O_28
REMARK    8  A    between atoms: C_27  and  C_30
REMARK    9  A    between atoms: C_30  and  O_31
REMARK                            x       y       z     vdW  Elec       q    Type
REMARK                         _______ _______ _______ _____ _____    ______ ____
ROOT
ATOM      1  C   UNL     1     -49.856  -1.145 -26.083  0.00  0.00    +0.000 C 
ATOM      2  C   UNL     1     -49.618  -0.842 -24.643  0.00  0.00    +0.000 A 
ATOM      3  C   UNL     1     -50.623  -0.197 -23.919  0.00  0.00    +0.000 A 
ATOM      4  C   UNL     1     -50.442   0.106 -22.567  0.00  0.00    +0.000 A 
ATOM      5  C   UNL     1     -51.461   0.754 -21.878  0.00  0.00    +0.000 A 
ATOM      6  C   UNL     1     -51.297   1.067 -20.534  0.00  0.00    +0.000 A 
ATOM      7  C   UNL     1     -52.284   1.723 -19.788  0.00  0.00    +0.000 A 
ATOM      8  O   UNL     1     -53.378   2.054 -20.319  0.00  0.00    +0.000 OA
ATOM      9  N   UNL     1     -52.062   2.008 -18.477  0.00  0.00    +0.000 N 
ATOM     10  C   UNL     1     -50.905   1.682 -17.838  0.00  0.00    +0.000 A 
ATOM     11  O   UNL     1     -50.760   1.975 -16.624  0.00  0.00    +0.000 OA
ATOM     12  C   UNL     1     -49.876   1.026 -18.517  0.00  0.00    +0.000 A 
ATOM     13  C   UNL     1     -50.028   0.695 -19.868  0.00  0.00    +0.000 A 
ATOM     14  N   UNL     1     -49.048   0.047 -20.578  0.00  0.00    +0.000 N 
ATOM     15  C   UNL     1     -49.233  -0.242 -21.910  0.00  0.00    +0.000 A 
ATOM     16  C   UNL     1     -48.230  -0.887 -22.656  0.00  0.00    +0.000 A 
ATOM     17  C   UNL     1     -48.413  -1.188 -24.008  0.00  0.00    +0.000 A 
ATOM     18  C   UNL     1     -47.313  -1.876 -24.743  0.00  0.00    +0.000 C 
ATOM     19  H   UNL     1     -52.767   2.469 -17.969  0.00  0.00    +0.000 HD
ENDROOT
BRANCH  14  20
ATOM     20  C   UNL     1     -47.799  -0.345 -19.911  0.00  0.00    +0.000 C 
BRANCH  20  21
ATOM     21  C   UNL     1     -48.058  -1.412 -18.853  0.00  0.00    +0.000 C 
BRANCH  21  22
ATOM     22  O   UNL     1     -46.918  -1.569 -18.062  0.00  0.00    +0.000 OA
ATOM     23  H   UNL     1     -46.176  -1.856 -18.617  0.00  0.00    +0.000 HD
ENDBRANCH  21  22
BRANCH  21  24
ATOM     24  C   UNL     1     -48.462  -2.742 -19.498  0.00  0.00    +0.000 C 
BRANCH  24  25
ATOM     25  O   UNL     1     -47.365  -3.597 -19.634  0.00  0.00    +0.000 OA
ATOM     26  H   UNL     1     -47.026  -3.832 -18.756  0.00  0.00    +0.000 HD
ENDBRANCH  24  25
BRANCH  24  27
ATOM     27  C   UNL     1     -49.623  -3.440 -18.782  0.00  0.00    +0.000 C 
BRANCH  27  28
ATOM     28  O   UNL     1     -50.688  -2.552 -18.631  0.00  0.00    +0.000 OA
ATOM     29  H   UNL     1     -50.414  -1.809 -18.071  0.00  0.00    +0.000 HD
ENDBRANCH  27  28
BRANCH  27  30
ATOM     30  C   UNL     1     -49.239  -4.013 -17.423  0.00  0.00    +0.000 C 
BRANCH  30  31
ATOM     31  O   UNL     1     -48.717  -5.298 -17.573  0.00  0.00    +0.000 OA
ATOM     32  H   UNL     1     -49.386  -5.873 -17.978  0.00  0.00    +0.000 HD
ENDBRANCH  30  31
ENDBRANCH  27  30
ENDBRANCH  24  27
ENDBRANCH  21  24
ENDBRANCH  20  21
ENDBRANCH  14  20
TORSDOF 9
