REMARK  Name = ZINC000005035803 ZINC05035803 PubChem-92248579
REMARK  6 active torsions:
REMARK  status: ('A' for Active; 'I' for Inactive)
REMARK    1  A    between atoms: C_5  and  C_8
REMARK    2  A    between atoms: C_8  and  N_22
REMARK    3  A    between atoms: C_9  and  C_10
REMARK    4  A    between atoms: C_13  and  C_14
REMARK    5  A    between atoms: C_17  and  O_27
REMARK    6  A    between atoms: C_18  and  O_26
REMARK                            x       y       z     vdW  Elec       q    Type
REMARK                         _______ _______ _______ _____ _____    ______ ____
ROOT
ATOM      1  C   UNL     1     -51.657   0.159 -19.932  0.00  0.00    +0.000 C 
ATOM      2  C   UNL     1     -51.927  -0.904 -18.864  0.00  0.00    +0.000 C 
ATOM      3  C   UNL     1     -50.566  -1.296 -18.453  0.00  0.00    +0.000 C 
ATOM      4  C   UNL     1     -50.132   0.348 -20.006  0.00  0.00    +0.000 C 
ATOM      5  O   UNL     1     -50.320  -2.183 -17.595  0.00  0.00    +0.000 OA
ATOM      6  O   UNL     1     -49.578  -0.598 -19.108  0.00  0.00    +0.000 OA
ENDROOT
BRANCH   4   7
ATOM      7  C   UNL     1     -49.630   0.113 -21.395  0.00  0.00    +0.000 A 
ATOM      8  C   UNL     1     -49.712  -1.152 -21.990  0.00  0.00    +0.000 A 
ATOM      9  C   UNL     1     -49.240  -1.346 -23.290  0.00  0.00    +0.000 A 
ATOM     10  C   UNL     1     -48.684  -0.278 -24.013  0.00  0.00    +0.000 A 
ATOM     11  C   UNL     1     -48.605   0.993 -23.421  0.00  0.00    +0.000 A 
ATOM     12  C   UNL     1     -49.081   1.179 -22.112  0.00  0.00    +0.000 A 
BRANCH  11  14
ATOM     13  C   UNL     1     -47.936   3.368 -23.625  0.00  0.00    +0.000 C 
ATOM     14  O   UNL     1     -48.052   2.052 -24.150  0.00  0.00    +0.000 OA
ENDBRANCH  11  14
BRANCH  10  16
ATOM     15  C   UNL     1     -48.220  -1.715 -25.976  0.00  0.00    +0.000 C 
ATOM     16  O   UNL     1     -48.207  -0.455 -25.317  0.00  0.00    +0.000 OA
ENDBRANCH  10  16
ENDBRANCH   4   7
BRANCH   1  17
ATOM     17  C   UNL     1     -52.325   1.448 -19.583  0.00  0.00    +0.000 C 
ATOM     18  N   UNL     1     -52.096   2.055 -18.310  0.00  0.00    +0.000 NA
ATOM     19  O   UNL     1     -53.086   1.995 -20.424  0.00  0.00    +0.000 OA
BRANCH  18  20
ATOM     20  C   UNL     1     -52.665   3.345 -17.954  0.00  0.00    +0.000 C 
BRANCH  20  25
ATOM     21  C   UNL     1     -51.712   4.293 -12.340  0.00  0.00    +0.000 C 
ATOM     22  C   UNL     1     -51.959   4.062 -13.788  0.00  0.00    +0.000 A 
ATOM     23  C   UNL     1     -50.923   4.243 -14.711  0.00  0.00    +0.000 A 
ATOM     24  C   UNL     1     -51.154   4.019 -16.072  0.00  0.00    +0.000 A 
ATOM     25  C   UNL     1     -52.422   3.617 -16.511  0.00  0.00    +0.000 A 
ATOM     26  C   UNL     1     -53.454   3.430 -15.585  0.00  0.00    +0.000 A 
ATOM     27  C   UNL     1     -53.223   3.656 -14.225  0.00  0.00    +0.000 A 
ENDBRANCH  20  25
ENDBRANCH  18  20
ENDBRANCH   1  17
TORSDOF 6
