REMARK  Name = ZINC001529174993 MolPort-046-525-132
REMARK  5 active torsions:
REMARK  status: ('A' for Active; 'I' for Inactive)
REMARK    1  A    between atoms: N_1  and  C_19
REMARK    2  A    between atoms: C_2  and  C_5
REMARK    3  A    between atoms: C_11  and  C_13
REMARK    4  A    between atoms: C_19  and  C_21
REMARK    5  A    between atoms: C_20  and  O_30
REMARK                            x       y       z     vdW  Elec       q    Type
REMARK                         _______ _______ _______ _____ _____    ______ ____
ROOT
ATOM      1  N   UNL     1     -48.842  -1.810 -20.447  0.00  0.00    +0.000 N 
ATOM      2  C   UNL     1     -50.052  -1.454 -19.772  0.00  0.00    +0.000 C 
ATOM      3  O   UNL     1     -50.560  -2.263 -18.951  0.00  0.00    +0.000 OA
ATOM      4  H   UNL     1     -48.434  -2.681 -20.241  0.00  0.00    +0.000 HD
ENDROOT
BRANCH   2   5
ATOM      5  C   UNL     1     -50.712  -0.131 -20.018  0.00  0.00    +0.000 C 
ATOM      6  O   UNL     1     -51.569  -0.225 -21.133  0.00  0.00    +0.000 OA
ATOM      7  C   UNL     1     -51.845   1.089 -21.557  0.00  0.00    +0.000 C 
ATOM      8  C   UNL     1     -52.582   1.836 -20.487  0.00  0.00    +0.000 C 
ATOM      9  O   UNL     1     -53.371   2.770 -20.782  0.00  0.00    +0.000 OA
ATOM     10  N   UNL     1     -52.340   1.495 -19.121  0.00  0.00    +0.000 N 
ATOM     11  C   UNL     1     -51.504   0.344 -18.783  0.00  0.00    +0.000 C 
ATOM     12  H   UNL     1     -52.739   2.038 -18.403  0.00  0.00    +0.000 HD
BRANCH  11  13
ATOM     13  C   UNL     1     -50.601   0.683 -17.637  0.00  0.00    +0.000 A 
ATOM     14  C   UNL     1     -51.142   1.274 -16.491  0.00  0.00    +0.000 A 
ATOM     15  C   UNL     1     -50.317   1.590 -15.407  0.00  0.00    +0.000 A 
ATOM     16  C   UNL     1     -48.948   1.316 -15.467  0.00  0.00    +0.000 A 
ATOM     17  C   UNL     1     -48.402   0.727 -16.611  0.00  0.00    +0.000 A 
ATOM     18  C   UNL     1     -49.226   0.411 -17.695  0.00  0.00    +0.000 A 
ENDBRANCH  11  13
ENDBRANCH   2   5
BRANCH   1  19
ATOM     19  C   UNL     1     -48.180  -0.953 -21.425  0.00  0.00    +0.000 C 
BRANCH  19  21
ATOM     20  C   UNL     1     -48.754  -1.032 -23.885  0.00  0.00    +0.000 A 
ATOM     21  C   UNL     1     -48.124  -1.620 -22.764  0.00  0.00    +0.000 A 
ATOM     22  C   UNL     1     -47.434  -2.837 -22.899  0.00  0.00    +0.000 A 
ATOM     23  C   UNL     1     -47.396  -3.451 -24.149  0.00  0.00    +0.000 A 
ATOM     24  C   UNL     1     -46.729  -4.726 -24.481  0.00  0.00    +0.000 C 
ATOM     25  C   UNL     1     -47.015  -4.910 -25.979  0.00  0.00    +0.000 C 
ATOM     26  C   UNL     1     -47.848  -3.710 -26.453  0.00  0.00    +0.000 C 
ATOM     27  C   UNL     1     -48.012  -2.892 -25.235  0.00  0.00    +0.000 A 
ATOM     28  C   UNL     1     -48.697  -1.683 -25.134  0.00  0.00    +0.000 A 
BRANCH  20  30
ATOM     29  C   UNL     1     -49.970   0.905 -24.838  0.00  0.00    +0.000 C 
ATOM     30  O   UNL     1     -49.426   0.188 -23.738  0.00  0.00    +0.000 OA
ENDBRANCH  20  30
ENDBRANCH  19  21
ENDBRANCH   1  19
TORSDOF 5
