REMARK  Name = ZINC000014182987 MolPort-009-650-068
REMARK  2 active torsions:
REMARK  status: ('A' for Active; 'I' for Inactive)
REMARK    1  A    between atoms: C_2  and  C_5
REMARK    2  A    between atoms: C_20  and  C_22
REMARK                            x       y       z     vdW  Elec       q    Type
REMARK                         _______ _______ _______ _____ _____    ______ ____
ROOT
ATOM      1  O   UNL     1     -50.211  -1.906 -17.545  0.00  0.00    +0.000 OA
ATOM      2  C   UNL     1     -50.482  -1.374 -18.654  0.00  0.00    +0.000 C 
ATOM      3  N   UNL     1     -50.203  -2.110 -19.852  0.00  0.00    +0.000 N 
ATOM      4  H   UNL     1     -50.186  -3.092 -19.787  0.00  0.00    +0.000 HD
ATOM      5  C   UNL     1     -49.947  -1.531 -21.135  0.00  0.00    +0.000 A 
ATOM      6  N   UNL     1     -48.929  -0.682 -21.396  0.00  0.00    +0.000 NA
ATOM      7  N   UNL     1     -48.866  -0.322 -22.676  0.00  0.00    +0.000 NA
ATOM      8  C   UNL     1     -49.824  -0.890 -23.442  0.00  0.00    +0.000 A 
ATOM      9  S   UNL     1     -50.818  -1.903 -22.523  0.00  0.00    +0.000 S 
ENDROOT
BRANCH   2  10
ATOM     10  C   UNL     1     -51.143  -0.047 -18.685  0.00  0.00    +0.000 A 
ATOM     11  C   UNL     1     -51.920   0.290 -19.801  0.00  0.00    +0.000 A 
ATOM     12  C   UNL     1     -52.578   1.518 -19.854  0.00  0.00    +0.000 A 
ATOM     13  O   UNL     1     -53.270   1.816 -20.862  0.00  0.00    +0.000 OA
ATOM     14  N   UNL     1     -52.476   2.393 -18.820  0.00  0.00    +0.000 N 
ATOM     15  C   UNL     1     -51.740   2.108 -17.715  0.00  0.00    +0.000 A 
ATOM     16  C   UNL     1     -51.659   3.041 -16.677  0.00  0.00    +0.000 A 
ATOM     17  C   UNL     1     -50.896   2.762 -15.540  0.00  0.00    +0.000 A 
ATOM     18  C   UNL     1     -50.209   1.550 -15.438  0.00  0.00    +0.000 A 
ATOM     19  C   UNL     1     -50.284   0.612 -16.471  0.00  0.00    +0.000 A 
ATOM     20  C   UNL     1     -51.052   0.873 -17.616  0.00  0.00    +0.000 A 
ATOM     21  H   UNL     1     -52.948   3.256 -18.873  0.00  0.00    +0.000 HD
ENDBRANCH   2  10
BRANCH   8  22
ATOM     22  C   UNL     1     -49.941  -0.632 -24.913  0.00  0.00    +0.000 C 
ATOM     23  C   UNL     1     -51.089  -1.409 -25.569  0.00  0.00    +0.000 C 
ATOM     24  C   UNL     1     -50.717  -2.871 -25.819  0.00  0.00    +0.000 C 
ATOM     25  C   UNL     1     -49.443  -2.958 -26.649  0.00  0.00    +0.000 C 
ATOM     26  C   UNL     1     -48.294  -2.284 -25.909  0.00  0.00    +0.000 C 
ATOM     27  C   UNL     1     -48.614  -0.810 -25.661  0.00  0.00    +0.000 C 
ENDBRANCH   8  22
TORSDOF 2
