REMARK  Name = ZINC000615451238 MolPort-044-610-126
REMARK  6 active torsions:
REMARK  status: ('A' for Active; 'I' for Inactive)
REMARK    1  A    between atoms: C_2  and  C_3
REMARK    2  A    between atoms: C_4  and  C_5
REMARK    3  A    between atoms: C_5  and  N_22
REMARK    4  A    between atoms: C_6  and  C_7
REMARK    5  A    between atoms: C_10  and  N_23
REMARK    6  A    between atoms: C_13  and  C_14
REMARK                            x       y       z     vdW  Elec       q    Type
REMARK                         _______ _______ _______ _____ _____    ______ ____
ROOT
ATOM      1  C   UNL     1     -51.589   0.223 -20.114  0.00  0.00    +0.000 C 
ATOM      2  C   UNL     1     -51.860  -0.949 -19.160  0.00  0.00    +0.000 C 
ATOM      3  C   UNL     1     -50.520  -1.277 -18.637  0.00  0.00    +0.000 C 
ATOM      4  C   UNL     1     -50.072   0.485 -20.116  0.00  0.00    +0.000 C 
ATOM      5  N   UNL     1     -49.501  -0.444 -19.153  0.00  0.00    +0.000 N 
ATOM      6  O   UNL     1     -50.300  -2.209 -17.818  0.00  0.00    +0.000 OA
ENDROOT
BRANCH   4   7
ATOM      7  C   UNL     1     -49.496   0.276 -21.485  0.00  0.00    +0.000 A 
ATOM      8  C   UNL     1     -49.472  -0.874 -22.250  0.00  0.00    +0.000 A 
ATOM      9  C   UNL     1     -50.022  -2.212 -21.883  0.00  0.00    +0.000 C 
ATOM     10  C   UNL     1     -48.609  -1.504 -24.508  0.00  0.00    +0.000 C 
ATOM     11  C   UNL     1     -48.867   1.246 -22.248  0.00  0.00    +0.000 A 
ATOM     12  N   UNL     1     -48.854  -0.587 -23.407  0.00  0.00    +0.000 N 
ATOM     13  N   UNL     1     -48.488   0.684 -23.417  0.00  0.00    +0.000 NA
ENDBRANCH   4   7
BRANCH   1  14
ATOM     14  C   UNL     1     -52.324   1.441 -19.664  0.00  0.00    +0.000 C 
ATOM     15  N   UNL     1     -52.039   2.023 -18.390  0.00  0.00    +0.000 NA
ATOM     16  O   UNL     1     -53.194   1.952 -20.419  0.00  0.00    +0.000 OA
BRANCH  15  17
ATOM     17  C   UNL     1     -52.711   3.221 -17.918  0.00  0.00    +0.000 C 
BRANCH  17  19
ATOM     18  C   UNL     1     -50.974   4.298 -15.035  0.00  0.00    +0.000 A 
ATOM     19  C   UNL     1     -52.188   3.585 -16.574  0.00  0.00    +0.000 A 
ATOM     20  N   UNL     1     -51.045   4.272 -16.381  0.00  0.00    +0.000 NA
ATOM     21  N   UNL     1     -52.770   3.207 -15.422  0.00  0.00    +0.000 NA
ATOM     22  N   UNL     1     -52.005   3.665 -14.447  0.00  0.00    +0.000 NA
BRANCH  18  24
ATOM     23  C   UNL     1     -48.553   4.291 -14.573  0.00  0.00    +0.000 C 
ATOM     24  C   UNL     1     -49.879   4.964 -14.275  0.00  0.00    +0.000 C 
ENDBRANCH  18  24
ENDBRANCH  17  19
ENDBRANCH  15  17
ENDBRANCH   1  14
BRANCH   5  25
ATOM     25  C   UNL     1     -48.077  -0.574 -18.850  0.00  0.00    +0.000 C 
ATOM     26  C   UNL     1     -47.827  -0.239 -17.390  0.00  0.00    +0.000 C 
ATOM     27  C   UNL     1     -47.502   0.777 -18.460  0.00  0.00    +0.000 C 
ENDBRANCH   5  25
TORSDOF 6
