REMARK  Name = ZINC000014495283
REMARK  4 active torsions:
REMARK  status: ('A' for Active; 'I' for Inactive)
REMARK    1  A    between atoms: C_1  and  C_14
REMARK    2  A    between atoms: C_9  and  S_25
REMARK    3  A    between atoms: N_13  and  C_24
REMARK    4  A    between atoms: S_25  and  N_28
REMARK                            x       y       z     vdW  Elec       q    Type
REMARK                         _______ _______ _______ _____ _____    ______ ____
ROOT
ATOM      1  C   UNL     1     -51.017   0.001 -19.254  0.00  0.00    +0.000 A 
ATOM      2  C   UNL     1     -51.894   0.377 -20.280  0.00  0.00    +0.000 A 
ATOM      3  C   UNL     1     -52.678   1.522 -20.151  0.00  0.00    +0.000 A 
ATOM      4  O   UNL     1     -53.460   1.855 -21.078  0.00  0.00    +0.000 OA
ATOM      5  N   UNL     1     -52.602   2.279 -19.025  0.00  0.00    +0.000 N 
ATOM      6  C   UNL     1     -51.770   1.952 -18.002  0.00  0.00    +0.000 A 
ATOM      7  C   UNL     1     -51.719   2.763 -16.865  0.00  0.00    +0.000 A 
ATOM      8  C   UNL     1     -50.859   2.442 -15.812  0.00  0.00    +0.000 A 
ATOM      9  C   UNL     1     -50.043   1.309 -15.892  0.00  0.00    +0.000 A 
ATOM     10  C   UNL     1     -50.088   0.495 -17.027  0.00  0.00    +0.000 A 
ATOM     11  C   UNL     1     -50.953   0.798 -18.090  0.00  0.00    +0.000 A 
ATOM     12  H   UNL     1     -53.163   3.084 -18.948  0.00  0.00    +0.000 HD
ENDROOT
BRANCH   1  14
ATOM     13  N   UNL     1     -50.172  -1.945 -20.668  0.00  0.00    +0.000 N 
ATOM     14  C   UNL     1     -50.219  -1.239 -19.420  0.00  0.00    +0.000 C 
ATOM     15  O   UNL     1     -49.622  -1.732 -18.427  0.00  0.00    +0.000 OA
ATOM     16  H   UNL     1     -50.084  -2.925 -20.623  0.00  0.00    +0.000 HD
BRANCH  13  24
ATOM     17  C   UNL     1     -51.430  -3.420 -22.785  0.00  0.00    +0.000 C 
ATOM     18  C   UNL     1     -50.835  -2.071 -23.035  0.00  0.00    +0.000 A 
ATOM     19  C   UNL     1     -50.874  -1.507 -24.325  0.00  0.00    +0.000 A 
ATOM     20 CL   UNL     1     -51.617  -2.348 -25.678  0.00  0.00    +0.000 Cl
ATOM     21  C   UNL     1     -50.311  -0.249 -24.553  0.00  0.00    +0.000 A 
ATOM     22  C   UNL     1     -49.706   0.452 -23.509  0.00  0.00    +0.000 A 
ATOM     23  C   UNL     1     -49.667  -0.102 -22.230  0.00  0.00    +0.000 A 
ATOM     24  C   UNL     1     -50.241  -1.358 -21.977  0.00  0.00    +0.000 A 
ENDBRANCH  13  24
ENDBRANCH   1  14
BRANCH   9  25
ATOM     25  S   UNL     1     -48.958   0.903 -14.574  0.00  0.00    +0.000 S 
ATOM     26  O   UNL     1     -49.011   1.983 -13.528  0.00  0.00    +0.000 OA
ATOM     27  O   UNL     1     -47.557   0.809 -15.110  0.00  0.00    +0.000 OA
BRANCH  25  28
ATOM     28  N   UNL     1     -49.425  -0.628 -13.884  0.00  0.00    +0.000 NA
ATOM     29  C   UNL     1     -50.868  -0.640 -13.595  0.00  0.00    +0.000 C 
ATOM     30  C   UNL     1     -51.192   0.084 -12.283  0.00  0.00    +0.000 C 
ATOM     31  O   UNL     1     -50.470  -0.497 -11.230  0.00  0.00    +0.000 OA
ATOM     32  C   UNL     1     -49.125  -0.171 -11.457  0.00  0.00    +0.000 C 
ATOM     33  C   UNL     1     -48.612  -0.919 -12.693  0.00  0.00    +0.000 C 
ENDBRANCH  25  28
ENDBRANCH   9  25
TORSDOF 4
