REMARK  Name = ZINC000065283276 ZINC65283276 ChemDiv-T480-0419 MolPort-010-948-687 PubChem-53190182
REMARK  2 active torsions:
REMARK  status: ('A' for Active; 'I' for Inactive)
REMARK    1  A    between atoms: C_8  and  C_17
REMARK    2  A    between atoms: N_19  and  C_21
REMARK                            x       y       z     vdW  Elec       q    Type
REMARK                         _______ _______ _______ _____ _____    ______ ____
ROOT
ATOM      1  C   UNL     1     -47.332  -2.109 -23.879  0.00  0.00    +0.000 C 
ATOM      2  C   UNL     1     -47.576  -1.271 -22.672  0.00  0.00    +0.000 A 
ATOM      3  C   UNL     1     -48.755  -0.637 -22.288  0.00  0.00    +0.000 A 
ATOM      4  C   UNL     1     -48.614   0.111 -21.111  0.00  0.00    +0.000 A 
ATOM      5  C   UNL     1     -47.352   0.092 -20.528  0.00  0.00    +0.000 A 
ATOM      6  S   UNL     1     -46.406  -0.883 -21.530  0.00  0.00    +0.000 S 
ATOM      7  N   UNL     1     -49.658   0.808 -20.603  0.00  0.00    +0.000 NA
ATOM      8  C   UNL     1     -50.868   0.783 -21.229  0.00  0.00    +0.000 A 
ATOM      9  N   UNL     1     -51.024   0.068 -22.382  0.00  0.00    +0.000 NA
ATOM     10  C   UNL     1     -50.004  -0.650 -22.927  0.00  0.00    +0.000 A 
ATOM     11  N   UNL     1     -50.234  -1.397 -24.121  0.00  0.00    +0.000 N 
ATOM     12  C   UNL     1     -49.995  -0.743 -25.411  0.00  0.00    +0.000 C 
ATOM     13  C   UNL     1     -50.538  -1.582 -26.567  0.00  0.00    +0.000 C 
ATOM     14  O   UNL     1     -50.230  -2.933 -26.364  0.00  0.00    +0.000 OA
ATOM     15  C   UNL     1     -51.102  -3.357 -25.353  0.00  0.00    +0.000 C 
ATOM     16  C   UNL     1     -50.648  -2.800 -24.005  0.00  0.00    +0.000 C 
ENDROOT
BRANCH   8  17
ATOM     17  C   UNL     1     -52.003   1.555 -20.689  0.00  0.00    +0.000 C 
ATOM     18  O   UNL     1     -53.006   1.763 -21.420  0.00  0.00    +0.000 OA
ATOM     19  N   UNL     1     -51.975   2.129 -19.375  0.00  0.00    +0.000 N 
ATOM     20  H   UNL     1     -52.406   3.007 -19.261  0.00  0.00    +0.000 HD
BRANCH  19  21
ATOM     21  C   UNL     1     -51.379   1.540 -18.212  0.00  0.00    +0.000 A 
ATOM     22  C   UNL     1     -51.337   2.278 -17.023  0.00  0.00    +0.000 A 
ATOM     23  C   UNL     1     -50.795   1.719 -15.861  0.00  0.00    +0.000 A 
ATOM     24  C   UNL     1     -50.300   0.413 -15.885  0.00  0.00    +0.000 A 
ATOM     25  O   UNL     1     -49.773  -0.175 -14.731  0.00  0.00    +0.000 OA
ATOM     26  C   UNL     1     -49.536  -1.583 -14.670  0.00  0.00    +0.000 C 
ATOM     27  C   UNL     1     -48.983  -2.085 -16.006  0.00  0.00    +0.000 C 
ATOM     28  O   UNL     1     -49.798  -1.620 -17.084  0.00  0.00    +0.000 OA
ATOM     29  C   UNL     1     -50.330  -0.328 -17.074  0.00  0.00    +0.000 A 
ATOM     30  C   UNL     1     -50.885   0.226 -18.229  0.00  0.00    +0.000 A 
ENDBRANCH  19  21
ENDBRANCH   8  17
TORSDOF 2
