REMARK  Name = ZINC000524729961
REMARK  9 active torsions:
REMARK  status: ('A' for Active; 'I' for Inactive)
REMARK    1  A    between atoms: C_2  and  O_26
REMARK    2  A    between atoms: C_4  and  C_5
REMARK    3  A    between atoms: C_5  and  C_6
REMARK    4  A    between atoms: C_5  and  C_17
REMARK    5  A    between atoms: C_6  and  C_7
REMARK    6  A    between atoms: C_8  and  C_9
REMARK    7  A    between atoms: C_8  and  N_32
REMARK    8  A    between atoms: C_9  and  C_10
REMARK    9  A    between atoms: C_10  and  C_11
REMARK                            x       y       z     vdW  Elec       q    Type
REMARK                         _______ _______ _______ _____ _____    ______ ____
ROOT
ATOM      1  C   UNL     1     -52.364  -0.628 -16.939  0.00  0.00    +0.000 C 
ENDROOT
BRANCH   1   2
ATOM      2  C   UNL     1     -52.892  -0.304 -18.313  0.00  0.00    +0.000 A 
ATOM      3  C   UNL     1     -54.111  -1.063 -20.157  0.00  0.00    +0.000 A 
ATOM      4  C   UNL     1     -54.888  -2.156 -20.798  0.00  0.00    +0.000 C 
ATOM      5  C   UNL     1     -53.924   0.141 -20.835  0.00  0.00    +0.000 A 
ATOM      6  C   UNL     1     -53.191   1.151 -20.217  0.00  0.00    +0.000 A 
ATOM      7  C   UNL     1     -52.663   0.938 -18.940  0.00  0.00    +0.000 A 
ATOM      8  O   UNL     1     -53.599  -1.241 -18.943  0.00  0.00    +0.000 OA
ATOM      9  O   UNL     1     -53.006   2.244 -20.812  0.00  0.00    +0.000 OA
ATOM     10  O   UNL     1     -51.922   1.937 -18.317  0.00  0.00    +0.000 OA
ENDBRANCH   1   2
BRANCH   1  13
ATOM     11  C   UNL     1     -53.812   1.974 -14.548  0.00  0.00    +0.000 A 
ATOM     12  C   UNL     1     -53.038   1.383 -15.559  0.00  0.00    +0.000 A 
ATOM     13  C   UNL     1     -53.166   0.018 -15.851  0.00  0.00    +0.000 A 
ATOM     14  C   UNL     1     -54.080  -0.757 -15.131  0.00  0.00    +0.000 A 
ATOM     15  C   UNL     1     -54.854  -0.177 -14.123  0.00  0.00    +0.000 A 
ATOM     16  C   UNL     1     -54.721   1.184 -13.831  0.00  0.00    +0.000 A 
ATOM     17  O   UNL     1     -55.498   1.747 -12.825  0.00  0.00    +0.000 OA
BRANCH  11  19
ATOM     18  C   UNL     1     -52.801   4.200 -14.929  0.00  0.00    +0.000 C 
ATOM     19  O   UNL     1     -53.696   3.334 -14.244  0.00  0.00    +0.000 OA
ENDBRANCH  11  19
ENDBRANCH   1  13
BRANCH   1  20
ATOM     20  C   UNL     1     -50.860  -0.396 -16.783  0.00  0.00    +0.000 C 
BRANCH  20  21
ATOM     21  C   UNL     1     -50.086  -1.297 -17.683  0.00  0.00    +0.000 C 
ATOM     22  O   UNL     1     -50.055  -2.537 -17.460  0.00  0.00    +0.000 OA
ATOM     23  N   UNL     1     -49.403  -0.741 -18.807  0.00  0.00    +0.000 NA
BRANCH  23  24
ATOM     24  C   UNL     1     -48.738  -1.552 -19.818  0.00  0.00    +0.000 C 
BRANCH  24  25
ATOM     25  C   UNL     1     -49.749  -2.378 -20.610  0.00  0.00    +0.000 C 
BRANCH  25  26
ATOM     26  C   UNL     1     -50.800  -1.505 -21.288  0.00  0.00    +0.000 C 
BRANCH  26  27
ATOM     27  C   UNL     1     -50.205  -0.662 -22.370  0.00  0.00    +0.000 A 
ATOM     28  C   UNL     1     -49.282  -0.017 -24.154  0.00  0.00    +0.000 A 
ATOM     29  C   UNL     1     -48.661  -0.085 -25.398  0.00  0.00    +0.000 A 
ATOM     30  C   UNL     1     -48.444  -1.367 -25.933  0.00  0.00    +0.000 A 
ATOM     31  C   UNL     1     -48.846  -2.519 -25.227  0.00  0.00    +0.000 A 
ATOM     32  C   UNL     1     -49.468  -2.382 -23.976  0.00  0.00    +0.000 A 
ATOM     33  N   UNL     1     -50.174   0.689 -22.341  0.00  0.00    +0.000 NA
ATOM     34  N   UNL     1     -49.590   1.098 -23.465  0.00  0.00    +0.000 NA
ATOM     35  N   UNL     1     -49.652  -1.125 -23.502  0.00  0.00    +0.000 N 
ENDBRANCH  26  27
ENDBRANCH  25  26
ENDBRANCH  24  25
ENDBRANCH  23  24
ENDBRANCH  20  21
ENDBRANCH   1  20
TORSDOF 9
