REMARK  Name = ZINC000096181229
REMARK  4 active torsions:
REMARK  status: ('A' for Active; 'I' for Inactive)
REMARK    1  A    between atoms: C_3  and  C_4
REMARK    2  A    between atoms: C_4  and  N_20
REMARK    3  A    between atoms: C_5  and  C_6
REMARK    4  A    between atoms: C_10  and  C_11
REMARK                            x       y       z     vdW  Elec       q    Type
REMARK                         _______ _______ _______ _____ _____    ______ ____
ROOT
ATOM      1  C   UNL     1     -51.690   0.029 -19.923  0.00  0.00    +0.000 C 
ATOM      2  C   UNL     1     -51.994  -1.008 -18.833  0.00  0.00    +0.000 C 
ATOM      3  C   UNL     1     -50.652  -1.448 -18.404  0.00  0.00    +0.000 C 
ATOM      4  C   UNL     1     -48.207  -0.853 -18.707  0.00  0.00    +0.000 C 
ATOM      5  C   UNL     1     -50.160   0.192 -20.001  0.00  0.00    +0.000 C 
ATOM      6  N   UNL     1     -49.608  -0.793 -19.091  0.00  0.00    +0.000 N 
ATOM      7  O   UNL     1     -50.452  -2.308 -17.505  0.00  0.00    +0.000 OA
ENDROOT
BRANCH   5   8
ATOM      8  C   UNL     1     -49.667  -0.025 -21.399  0.00  0.00    +0.000 A 
ATOM      9  C   UNL     1     -49.022   1.022 -22.064  0.00  0.00    +0.000 A 
ATOM     10  C   UNL     1     -48.555   0.843 -23.370  0.00  0.00    +0.000 A 
ATOM     11  C   UNL     1     -48.731  -0.385 -24.014  0.00  0.00    +0.000 A 
ATOM     12  C   UNL     1     -48.234  -0.574 -25.402  0.00  0.00    +0.000 C 
ATOM     13  C   UNL     1     -49.376  -1.435 -23.354  0.00  0.00    +0.000 A 
ATOM     14  C   UNL     1     -49.843  -1.257 -22.049  0.00  0.00    +0.000 A 
ENDBRANCH   5   8
BRANCH   1  15
ATOM     15  C   UNL     1     -52.342   1.334 -19.606  0.00  0.00    +0.000 C 
ATOM     16  N   UNL     1     -52.002   2.035 -18.408  0.00  0.00    +0.000 NA
ATOM     17  O   UNL     1     -53.191   1.810 -20.406  0.00  0.00    +0.000 OA
BRANCH  16  18
ATOM     18  C   UNL     1     -52.599   3.316 -18.068  0.00  0.00    +0.000 C 
BRANCH  18  21
ATOM     19  C   UNL     1     -49.886   4.915 -17.660  0.00  0.00    +0.000 C 
ATOM     20  C   UNL     1     -50.842   4.483 -16.599  0.00  0.00    +0.000 A 
ATOM     21  C   UNL     1     -52.027   3.808 -16.784  0.00  0.00    +0.000 A 
ATOM     22  C   UNL     1     -52.545   3.596 -15.518  0.00  0.00    +0.000 A 
ATOM     23  C   UNL     1     -49.562   5.347 -14.636  0.00  0.00    +0.000 C 
ATOM     24  N   UNL     1     -51.696   4.147 -14.621  0.00  0.00    +0.000 NA
ATOM     25  N   UNL     1     -50.678   4.676 -15.280  0.00  0.00    +0.000 N 
ENDBRANCH  18  21
ENDBRANCH  16  18
ENDBRANCH   1  15
TORSDOF 4
