REMARK  Name = ZINC000031810754
REMARK  1 active torsions:
REMARK  status: ('A' for Active; 'I' for Inactive)
REMARK    1  A    between atoms: C_7  and  C_24
REMARK                            x       y       z     vdW  Elec       q    Type
REMARK                         _______ _______ _______ _____ _____    ______ ____
ROOT
ATOM      1  C   UNL     1     -47.345  -1.384 -24.186  0.00  0.00    +0.000 C 
ATOM      2  C   UNL     1     -48.335  -1.196 -23.090  0.00  0.00    +0.000 A 
ATOM      3  N   UNL     1     -49.312  -0.272 -23.125  0.00  0.00    +0.000 NA
ATOM      4  N   UNL     1     -50.008  -0.383 -22.005  0.00  0.00    +0.000 N 
ATOM      5  C   UNL     1     -49.511  -1.394 -21.256  0.00  0.00    +0.000 A 
ATOM      6  C   UNL     1     -48.410  -1.933 -21.920  0.00  0.00    +0.000 A 
ATOM      7  C   UNL     1     -47.508  -3.088 -21.585  0.00  0.00    +0.000 C 
ATOM      8  S   UNL     1     -47.227  -3.348 -19.806  0.00  0.00    +0.000 S 
ATOM      9  C   UNL     1     -48.893  -4.003 -19.550  0.00  0.00    +0.000 C 
ATOM     10  C   UNL     1     -49.813  -2.909 -19.157  0.00  0.00    +0.000 C 
ATOM     11  O   UNL     1     -50.385  -2.981 -18.039  0.00  0.00    +0.000 OA
ATOM     12  N   UNL     1     -50.106  -1.799 -20.011  0.00  0.00    +0.000 N 
ATOM     13  H   UNL     1     -50.835  -1.217 -19.695  0.00  0.00    +0.000 HD
ATOM     14  C   UNL     1     -51.152   0.435 -21.723  0.00  0.00    +0.000 A 
ATOM     15  N   UNL     1     -52.016   0.774 -22.727  0.00  0.00    +0.000 NA
ATOM     16  C   UNL     1     -53.103   1.577 -22.497  0.00  0.00    +0.000 A 
ATOM     17  N   UNL     1     -53.344   2.078 -21.248  0.00  0.00    +0.000 NA
ATOM     18  C   UNL     1     -52.481   1.755 -20.255  0.00  0.00    +0.000 A 
ATOM     19  N   UNL     1     -52.520   2.193 -18.991  0.00  0.00    +0.000 N 
ATOM     20  C   UNL     1     -51.407   1.626 -18.450  0.00  0.00    +0.000 A 
ATOM     21  N   UNL     1     -50.692   0.870 -19.327  0.00  0.00    +0.000 NA
ATOM     22  C   UNL     1     -51.407   0.965 -20.457  0.00  0.00    +0.000 A 
ATOM     23  H   UNL     1     -53.185   2.777 -18.561  0.00  0.00    +0.000 HD
ENDROOT
BRANCH   7  24
ATOM     24  C   UNL     1     -47.797  -4.352 -22.346  0.00  0.00    +0.000 A 
ATOM     25  C   UNL     1     -46.763  -5.273 -22.552  0.00  0.00    +0.000 A 
ATOM     26  C   UNL     1     -47.005  -6.462 -23.247  0.00  0.00    +0.000 A 
ATOM     27  C   UNL     1     -48.284  -6.737 -23.737  0.00  0.00    +0.000 A 
ATOM     28  F   UNL     1     -48.517  -7.889 -24.410  0.00  0.00    +0.000 F 
ATOM     29  C   UNL     1     -49.323  -5.825 -23.532  0.00  0.00    +0.000 A 
ATOM     30  C   UNL     1     -49.081  -4.636 -22.838  0.00  0.00    +0.000 A 
ENDBRANCH   7  24
TORSDOF 1
