REMARK  Name = ZINC000670444915
REMARK  7 active torsions:
REMARK  status: ('A' for Active; 'I' for Inactive)
REMARK    1  A    between atoms: N_1  and  C_18
REMARK    2  A    between atoms: C_2  and  C_5
REMARK    3  A    between atoms: N_9  and  C_11
REMARK    4  A    between atoms: C_11  and  C_12
REMARK    5  A    between atoms: C_18  and  C_19
REMARK    6  A    between atoms: C_19  and  C_25
REMARK    7  A    between atoms: C_27  and  O_28
REMARK                            x       y       z     vdW  Elec       q    Type
REMARK                         _______ _______ _______ _____ _____    ______ ____
ROOT
ATOM      1  N   UNL     1     -49.738  -2.599 -25.708  0.00  0.00    +0.000 N 
ATOM      2  C   UNL     1     -51.144  -2.385 -25.554  0.00  0.00    +0.000 C 
ATOM      3  O   UNL     1     -51.936  -2.656 -26.496  0.00  0.00    +0.000 OA
ATOM      4  H   UNL     1     -49.132  -2.340 -24.977  0.00  0.00    +0.000 HD
ENDROOT
BRANCH   2   5
ATOM      5  C   UNL     1     -51.691  -1.880 -24.260  0.00  0.00    +0.000 C 
ATOM      6  C   UNL     1     -51.395  -2.878 -23.133  0.00  0.00    +0.000 C 
ATOM      7  C   UNL     1     -50.643  -2.068 -22.157  0.00  0.00    +0.000 C 
ATOM      8  O   UNL     1     -50.179  -2.525 -21.080  0.00  0.00    +0.000 OA
ATOM      9  N   UNL     1     -50.474  -0.728 -22.567  0.00  0.00    +0.000 N 
ATOM     10  C   UNL     1     -51.043  -0.536 -23.884  0.00  0.00    +0.000 C 
BRANCH   9  11
ATOM     11  C   UNL     1     -49.674   0.273 -21.878  0.00  0.00    +0.000 C 
BRANCH  11  12
ATOM     12  C   UNL     1     -50.431   0.842 -20.727  0.00  0.00    +0.000 A 
ATOM     13  C   UNL     1     -51.592   1.589 -20.945  0.00  0.00    +0.000 A 
ATOM     14  C   UNL     1     -52.304   2.101 -19.859  0.00  0.00    +0.000 A 
ATOM     15  C   UNL     1     -51.846   1.847 -18.565  0.00  0.00    +0.000 A 
ATOM     16  N   UNL     1     -50.718   1.111 -18.371  0.00  0.00    +0.000 NA
ATOM     17  C   UNL     1     -50.009   0.606 -19.417  0.00  0.00    +0.000 A 
ENDBRANCH  11  12
ENDBRANCH   9  11
ENDBRANCH   2   5
BRANCH   1  18
ATOM     18  C   UNL     1     -49.180  -3.190 -26.914  0.00  0.00    +0.000 C 
BRANCH  18  19
ATOM     19  C   UNL     1     -47.934  -3.991 -26.573  0.00  0.00    +0.000 C 
BRANCH  19  25
ATOM     20  C   UNL     1     -47.052  -4.223 -18.997  0.00  0.00    +0.000 C 
ATOM     21  C   UNL     1     -47.295  -4.329 -20.462  0.00  0.00    +0.000 A 
ATOM     22  S   UNL     1     -46.598  -3.306 -21.616  0.00  0.00    +0.000 S 
ATOM     23  C   UNL     1     -47.353  -4.053 -22.913  0.00  0.00    +0.000 A 
ATOM     24  N   UNL     1     -47.255  -3.705 -24.216  0.00  0.00    +0.000 NA
ATOM     25  C   UNL     1     -47.963  -4.411 -25.142  0.00  0.00    +0.000 A 
ATOM     26  N   UNL     1     -48.768  -5.445 -24.752  0.00  0.00    +0.000 NA
ATOM     27  C   UNL     1     -48.879  -5.808 -23.442  0.00  0.00    +0.000 A 
ATOM     28  C   UNL     1     -48.154  -5.094 -22.483  0.00  0.00    +0.000 A 
ATOM     29  C   UNL     1     -48.125  -5.263 -21.088  0.00  0.00    +0.000 A 
ATOM     30  C   UNL     1     -48.898  -6.302 -20.345  0.00  0.00    +0.000 C 
BRANCH  27  31
ATOM     31  O   UNL     1     -49.703  -6.868 -23.087  0.00  0.00    +0.000 OA
ATOM     32  H   UNL     1     -50.180  -7.332 -23.747  0.00  0.00    +0.000 HD
ENDBRANCH  27  31
ENDBRANCH  19  25
ENDBRANCH  18  19
ENDBRANCH   1  18
TORSDOF 7
