REMARK  Name = ZINC000031810539
REMARK  1 active torsions:
REMARK  status: ('A' for Active; 'I' for Inactive)
REMARK    1  A    between atoms: C_7  and  C_24
REMARK                            x       y       z     vdW  Elec       q    Type
REMARK                         _______ _______ _______ _____ _____    ______ ____
ROOT
ATOM      1  C   UNL     1     -48.971  -0.354 -25.276  0.00  0.00    +0.000 C 
ATOM      2  C   UNL     1     -49.614  -0.535 -23.944  0.00  0.00    +0.000 A 
ATOM      3  N   UNL     1     -50.284   0.460 -23.339  0.00  0.00    +0.000 NA
ATOM      4  N   UNL     1     -50.656   0.031 -22.147  0.00  0.00    +0.000 N 
ATOM      5  C   UNL     1     -50.241  -1.242 -21.968  0.00  0.00    +0.000 A 
ATOM      6  C   UNL     1     -49.583  -1.671 -23.128  0.00  0.00    +0.000 A 
ATOM      7  C   UNL     1     -48.856  -2.981 -23.393  0.00  0.00    +0.000 C 
ATOM      8  S   UNL     1     -49.688  -4.418 -22.661  0.00  0.00    +0.000 S 
ATOM      9  C   UNL     1     -49.002  -3.994 -21.052  0.00  0.00    +0.000 C 
ATOM     10  C   UNL     1     -50.020  -3.226 -20.299  0.00  0.00    +0.000 C 
ATOM     11  O   UNL     1     -50.436  -3.688 -19.205  0.00  0.00    +0.000 OA
ATOM     12  N   UNL     1     -50.540  -1.980 -20.769  0.00  0.00    +0.000 N 
ATOM     13  H   UNL     1     -51.207  -1.560 -20.179  0.00  0.00    +0.000 HD
ATOM     14  C   UNL     1     -51.408   0.845 -21.235  0.00  0.00    +0.000 A 
ATOM     15  N   UNL     1     -52.472   1.575 -21.687  0.00  0.00    +0.000 NA
ATOM     16  C   UNL     1     -53.193   2.385 -20.848  0.00  0.00    +0.000 A 
ATOM     17  N   UNL     1     -52.853   2.497 -19.529  0.00  0.00    +0.000 NA
ATOM     18  C   UNL     1     -51.790   1.786 -19.083  0.00  0.00    +0.000 A 
ATOM     19  N   UNL     1     -51.274   1.812 -17.848  0.00  0.00    +0.000 N 
ATOM     20  C   UNL     1     -50.201   0.983 -17.961  0.00  0.00    +0.000 A 
ATOM     21  N   UNL     1     -50.037   0.459 -19.207  0.00  0.00    +0.000 NA
ATOM     22  C   UNL     1     -51.067   0.981 -19.889  0.00  0.00    +0.000 A 
ATOM     23  H   UNL     1     -51.592   2.305 -17.058  0.00  0.00    +0.000 HD
ENDROOT
BRANCH   7  24
ATOM     24  C   UNL     1     -48.586  -3.262 -24.841  0.00  0.00    +0.000 A 
ATOM     25  C   UNL     1     -47.288  -3.602 -25.239  0.00  0.00    +0.000 A 
ATOM     26  C   UNL     1     -47.012  -3.872 -26.583  0.00  0.00    +0.000 A 
ATOM     27  C   UNL     1     -48.035  -3.804 -27.534  0.00  0.00    +0.000 A 
ATOM     28  C   UNL     1     -49.334  -3.469 -27.142  0.00  0.00    +0.000 A 
ATOM     29  F   UNL     1     -50.324  -3.405 -28.063  0.00  0.00    +0.000 F 
ATOM     30  C   UNL     1     -49.611  -3.199 -25.799  0.00  0.00    +0.000 A 
ENDBRANCH   7  24
TORSDOF 1
