REMARK  Name = ZINC000262769186
REMARK  4 active torsions:
REMARK  status: ('A' for Active; 'I' for Inactive)
REMARK    1  A    between atoms: C_3  and  C_4
REMARK    2  A    between atoms: C_5  and  C_6
REMARK    3  A    between atoms: C_7  and  N_22
REMARK    4  A    between atoms: C_11  and  C_12
REMARK                            x       y       z     vdW  Elec       q    Type
REMARK                         _______ _______ _______ _____ _____    ______ ____
ROOT
ATOM      1  C   UNL     1     -52.337   1.419 -19.861  0.00  0.00    +0.000 C 
ATOM      2  N   UNL     1     -52.023   1.539 -18.465  0.00  0.00    +0.000 NA
ATOM      3  O   UNL     1     -52.971   2.327 -20.462  0.00  0.00    +0.000 OA
ENDROOT
BRANCH   2   4
ATOM      4  C   UNL     1     -52.362   2.627 -17.597  0.00  0.00    +0.000 A 
ATOM      5  C   UNL     1     -53.085   3.755 -18.060  0.00  0.00    +0.000 A 
ATOM      6  C   UNL     1     -53.408   4.814 -17.192  0.00  0.00    +0.000 A 
ATOM      7  C   UNL     1     -52.991   4.707 -15.869  0.00  0.00    +0.000 A 
ATOM      8  C   UNL     1     -52.617   5.055 -13.820  0.00  0.00    +0.000 A 
ATOM      9  C   UNL     1     -52.029   3.813 -14.074  0.00  0.00    +0.000 A 
ATOM     10  C   UNL     1     -52.294   3.623 -15.414  0.00  0.00    +0.000 A 
ATOM     11  C   UNL     1     -51.960   2.561 -16.249  0.00  0.00    +0.000 A 
ATOM     12  O   UNL     1     -53.180   5.563 -14.901  0.00  0.00    +0.000 OA
BRANCH   8  13
ATOM     13  C   UNL     1     -52.620   5.732 -12.519  0.00  0.00    +0.000 C 
ATOM     14  O   UNL     1     -52.066   5.199 -11.522  0.00  0.00    +0.000 OA
ATOM     15  O   UNL     1     -53.237   6.969 -12.383  0.00  0.00    +0.000 OA
ENDBRANCH   8  13
ENDBRANCH   2   4
BRANCH   1  17
ATOM     16  C   UNL     1     -50.378   0.048 -20.634  0.00  0.00    +0.000 C 
ATOM     17  C   UNL     1     -51.901   0.212 -20.632  0.00  0.00    +0.000 C 
ATOM     18  C   UNL     1     -52.612  -1.067 -20.190  0.00  0.00    +0.000 C 
ATOM     19  C   UNL     1     -52.186  -1.524 -18.798  0.00  0.00    +0.000 C 
ATOM     20  C   UNL     1     -50.702  -1.454 -18.599  0.00  0.00    +0.000 C 
ATOM     21  C   UNL     1     -48.470  -0.434 -19.088  0.00  0.00    +0.000 C 
ATOM     22  N   UNL     1     -49.872  -0.621 -19.430  0.00  0.00    +0.000 N 
ATOM     23  O   UNL     1     -50.193  -2.102 -17.646  0.00  0.00    +0.000 OA
BRANCH  16  26
ATOM     24  C   UNL     1     -48.591  -0.883 -25.192  0.00  0.00    +0.000 C 
ATOM     25  C   UNL     1     -49.387  -0.065 -22.991  0.00  0.00    +0.000 A 
ATOM     26  C   UNL     1     -49.923  -0.664 -21.871  0.00  0.00    +0.000 A 
ATOM     27  C   UNL     1     -50.007  -2.021 -22.132  0.00  0.00    +0.000 A 
ATOM     28  N   UNL     1     -49.157  -1.056 -23.868  0.00  0.00    +0.000 N 
ATOM     29  N   UNL     1     -49.522  -2.226 -23.372  0.00  0.00    +0.000 NA
ENDBRANCH  16  26
ENDBRANCH   1  17
TORSDOF 4
