REMARK  Name = ZINC000008861088
REMARK  3 active torsions:
REMARK  status: ('A' for Active; 'I' for Inactive)
REMARK    1  A    between atoms: C_1  and  C_3
REMARK    2  A    between atoms: C_1  and  O_15
REMARK    3  A    between atoms: O_15  and  C_19
REMARK                            x       y       z     vdW  Elec       q    Type
REMARK                         _______ _______ _______ _____ _____    ______ ____
ROOT
ATOM      1  C   UNL     1     -49.196   0.181 -20.294  0.00  0.00    +0.000 C 
ATOM      2  O   UNL     1     -48.050   0.693 -20.392  0.00  0.00    +0.000 OA
ENDROOT
BRANCH   1   3
ATOM      3  C   UNL     1     -50.286   0.944 -19.636  0.00  0.00    +0.000 A 
ATOM      4  C   UNL     1     -51.307   1.473 -20.436  0.00  0.00    +0.000 A 
ATOM      5  C   UNL     1     -52.359   2.181 -19.856  0.00  0.00    +0.000 A 
ATOM      6  O   UNL     1     -53.270   2.656 -20.582  0.00  0.00    +0.000 OA
ATOM      7  N   UNL     1     -52.403   2.358 -18.510  0.00  0.00    +0.000 N 
ATOM      8  C   UNL     1     -51.438   1.861 -17.694  0.00  0.00    +0.000 A 
ATOM      9  C   UNL     1     -51.521   2.075 -16.315  0.00  0.00    +0.000 A 
ATOM     10  C   UNL     1     -50.528   1.578 -15.467  0.00  0.00    +0.000 A 
ATOM     11  C   UNL     1     -49.447   0.869 -15.994  0.00  0.00    +0.000 A 
ATOM     12  C   UNL     1     -49.356   0.650 -17.372  0.00  0.00    +0.000 A 
ATOM     13  C   UNL     1     -50.350   1.135 -18.237  0.00  0.00    +0.000 A 
ATOM     14  H   UNL     1     -53.153   2.860 -18.117  0.00  0.00    +0.000 HD
ENDBRANCH   1   3
BRANCH   1  15
ATOM     15  O   UNL     1     -49.377  -1.138 -20.735  0.00  0.00    +0.000 OA
BRANCH  15  19
ATOM     16  C   UNL     1     -51.310  -4.542 -23.666  0.00  0.00    +0.000 C 
ATOM     17  C   UNL     1     -50.709  -3.187 -23.508  0.00  0.00    +0.000 A 
ATOM     18  C   UNL     1     -50.325  -2.771 -22.230  0.00  0.00    +0.000 A 
ATOM     19  C   UNL     1     -49.762  -1.510 -22.030  0.00  0.00    +0.000 A 
ATOM     20  C   UNL     1     -49.565  -0.665 -23.133  0.00  0.00    +0.000 A 
ATOM     21  C   UNL     1     -49.945  -1.066 -24.415  0.00  0.00    +0.000 A 
ATOM     22  C   UNL     1     -49.722  -0.127 -25.550  0.00  0.00    +0.000 C 
ATOM     23  C   UNL     1     -50.523  -2.334 -24.612  0.00  0.00    +0.000 A 
ATOM     24 CL   UNL     1     -51.007  -2.850 -26.229  0.00  0.00    +0.000 Cl
ENDBRANCH  15  19
ENDBRANCH   1  15
TORSDOF 3
