REMARK  Name = ZINC000019936622 CSC046228778 PubChem-28463439
REMARK  7 active torsions:
REMARK  status: ('A' for Active; 'I' for Inactive)
REMARK    1  A    between atoms: C_5  and  S_21
REMARK    2  A    between atoms: C_8  and  N_20
REMARK    3  A    between atoms: C_10  and  O_27
REMARK    4  A    between atoms: C_11  and  O_26
REMARK    5  A    between atoms: C_13  and  C_14
REMARK    6  A    between atoms: C_14  and  O_25
REMARK    7  A    between atoms: N_20  and  S_21
REMARK                            x       y       z     vdW  Elec       q    Type
REMARK                         _______ _______ _______ _____ _____    ______ ____
ROOT
ATOM      1  N   UNL     1     -52.095   1.704 -18.330  0.00  0.00    +0.000 NA
ENDROOT
BRANCH   1   2
ATOM      2  C   UNL     1     -51.280   0.814 -17.556  0.00  0.00    +0.000 A 
ATOM      3  C   UNL     1     -51.054  -0.492 -18.007  0.00  0.00    +0.000 A 
ATOM      4  C   UNL     1     -50.256  -1.393 -17.289  0.00  0.00    +0.000 A 
ATOM      5  C   UNL     1     -49.670  -0.972 -16.074  0.00  0.00    +0.000 A 
ATOM      6  C   UNL     1     -49.899   0.331 -15.625  0.00  0.00    +0.000 A 
ATOM      7  C   UNL     1     -50.694   1.236 -16.343  0.00  0.00    +0.000 A 
BRANCH   7   8
ATOM      8  C   UNL     1     -50.879   2.601 -15.790  0.00  0.00    +0.000 C 
ATOM      9  O   UNL     1     -50.323   2.912 -14.699  0.00  0.00    +0.000 OA
BRANCH   8  11
ATOM     10  C   UNL     1     -51.852   4.858 -15.957  0.00  0.00    +0.000 C 
ATOM     11  O   UNL     1     -51.659   3.545 -16.462  0.00  0.00    +0.000 OA
ENDBRANCH   8  11
ENDBRANCH   7   8
BRANCH   5  13
ATOM     12  C   UNL     1     -48.520  -3.137 -15.570  0.00  0.00    +0.000 C 
ATOM     13  O   UNL     1     -48.857  -1.789 -15.274  0.00  0.00    +0.000 OA
ENDBRANCH   5  13
BRANCH   4  15
ATOM     14  C   UNL     1     -50.596  -3.151 -19.003  0.00  0.00    +0.000 C 
ATOM     15  O   UNL     1     -50.045  -2.687 -17.777  0.00  0.00    +0.000 OA
ENDBRANCH   4  15
ENDBRANCH   1   2
BRANCH   1  16
ATOM     16  S   UNL     1     -52.839   1.274 -19.836  0.00  0.00    +0.000 S 
ATOM     17  O   UNL     1     -53.885   0.223 -19.585  0.00  0.00    +0.000 OA
ATOM     18  O   UNL     1     -53.495   2.487 -20.431  0.00  0.00    +0.000 OA
BRANCH  16  23
ATOM     19  C   UNL     1     -48.404  -1.701 -24.324  0.00  0.00    +0.000 C 
ATOM     20  C   UNL     1     -49.698  -0.312 -22.674  0.00  0.00    +0.000 A 
ATOM     21  C   UNL     1     -49.481   0.855 -21.994  0.00  0.00    +0.000 A 
ATOM     22  C   UNL     1     -50.422   1.386 -21.118  0.00  0.00    +0.000 A 
ATOM     23  C   UNL     1     -51.626   0.673 -20.951  0.00  0.00    +0.000 A 
ATOM     24  C   UNL     1     -51.848  -0.534 -21.657  0.00  0.00    +0.000 A 
ATOM     25  C   UNL     1     -50.875  -1.044 -22.536  0.00  0.00    +0.000 A 
ATOM     26  C   UNL     1     -47.792   0.464 -23.177  0.00  0.00    +0.000 A 
ATOM     27  N   UNL     1     -48.624  -0.572 -23.435  0.00  0.00    +0.000 N 
ATOM     28  O   UNL     1     -48.297   1.328 -22.312  0.00  0.00    +0.000 OA
ATOM     29  O   UNL     1     -46.655   0.594 -23.703  0.00  0.00    +0.000 OA
ENDBRANCH  16  23
ENDBRANCH   1  16
TORSDOF 7
