REMARK  Name = ZINC000040009606 ZINC40009606 CSC027005518 MCULE-5704859829 MolPort-009-402-766 PubChem-45858595
REMARK  3 active torsions:
REMARK  status: ('A' for Active; 'I' for Inactive)
REMARK    1  A    between atoms: C_1  and  C_2
REMARK    2  A    between atoms: C_1  and  C_16
REMARK    3  A    between atoms: C_16  and  C_26
REMARK                            x       y       z     vdW  Elec       q    Type
REMARK                         _______ _______ _______ _____ _____    ______ ____
ROOT
ATOM      1  C   UNL     1     -50.164  -1.869 -20.828  0.00  0.00    +0.000 C 
ENDROOT
BRANCH   1   2
ATOM      2  C   UNL     1     -50.479  -1.337 -19.467  0.00  0.00    +0.000 C 
ATOM      3  O   UNL     1     -50.383  -2.119 -18.484  0.00  0.00    +0.000 OA
ATOM      4  N   UNL     1     -50.923   0.023 -19.280  0.00  0.00    +0.000 N 
ATOM      5  C   UNL     1     -51.426   0.759 -20.447  0.00  0.00    +0.000 C 
ATOM      6  C   UNL     1     -52.500   1.732 -20.066  0.00  0.00    +0.000 C 
ATOM      7  O   UNL     1     -53.349   2.095 -20.921  0.00  0.00    +0.000 OA
ATOM      8  N   UNL     1     -52.518   2.301 -18.758  0.00  0.00    +0.000 N 
ATOM      9  C   UNL     1     -51.624   1.826 -17.752  0.00  0.00    +0.000 A 
ATOM     10  C   UNL     1     -51.557   2.480 -16.518  0.00  0.00    +0.000 A 
ATOM     11  C   UNL     1     -50.684   2.021 -15.529  0.00  0.00    +0.000 A 
ATOM     12  C   UNL     1     -49.879   0.905 -15.771  0.00  0.00    +0.000 A 
ATOM     13  C   UNL     1     -49.950   0.244 -17.000  0.00  0.00    +0.000 A 
ATOM     14  C   UNL     1     -50.828   0.693 -18.001  0.00  0.00    +0.000 A 
ATOM     15  H   UNL     1     -53.151   3.026 -18.548  0.00  0.00    +0.000 HD
ENDBRANCH   1   2
BRANCH   1  16
ATOM     16  C   UNL     1     -48.768  -1.442 -21.245  0.00  0.00    +0.000 C 
BRANCH  16  26
ATOM     17  C   UNL     1     -47.472  -4.150 -27.918  0.00  0.00    +0.000 C 
ATOM     18  C   UNL     1     -47.558  -3.874 -26.460  0.00  0.00    +0.000 A 
ATOM     19  N   UNL     1     -48.186  -2.793 -25.945  0.00  0.00    +0.000 NA
ATOM     20  N   UNL     1     -48.055  -2.889 -24.636  0.00  0.00    +0.000 N 
ATOM     21  C   UNL     1     -47.368  -3.994 -24.329  0.00  0.00    +0.000 A 
ATOM     22  C   UNL     1     -47.010  -4.687 -25.466  0.00  0.00    +0.000 A 
ATOM     23  N   UNL     1     -47.096  -4.326 -23.045  0.00  0.00    +0.000 NA
ATOM     24  C   UNL     1     -47.535  -3.514 -22.041  0.00  0.00    +0.000 A 
ATOM     25  C   UNL     1     -47.228  -3.893 -20.631  0.00  0.00    +0.000 C 
ATOM     26  C   UNL     1     -48.263  -2.333 -22.340  0.00  0.00    +0.000 A 
ATOM     27  C   UNL     1     -48.524  -2.032 -23.694  0.00  0.00    +0.000 A 
ATOM     28  C   UNL     1     -49.288  -0.810 -24.095  0.00  0.00    +0.000 C 
ENDBRANCH  16  26
ENDBRANCH   1  16
TORSDOF 3
