REMARK  Name = ZINC000004702219 ZINC04702219 PubChem-1342041
REMARK  3 active torsions:
REMARK  status: ('A' for Active; 'I' for Inactive)
REMARK    1  A    between atoms: C_3  and  C_22
REMARK    2  A    between atoms: C_4  and  C_16
REMARK    3  A    between atoms: N_24  and  C_26
REMARK                            x       y       z     vdW  Elec       q    Type
REMARK                         _______ _______ _______ _____ _____    ______ ____
ROOT
ATOM      1  C   UNL     1     -52.406   1.168 -22.664  0.00  0.00    +0.000 C 
ATOM      2  C   UNL     1     -51.183   0.319 -22.767  0.00  0.00    +0.000 C 
ATOM      3  C   UNL     1     -50.224   0.283 -21.811  0.00  0.00    +0.000 C 
ATOM      4  C   UNL     1     -49.080  -0.708 -21.947  0.00  0.00    +0.000 C 
ATOM      5  C   UNL     1     -48.824  -1.185 -23.360  0.00  0.00    +0.000 C 
ATOM      6  C   UNL     1     -49.805  -1.129 -24.274  0.00  0.00    +0.000 C 
ATOM      7  N   UNL     1     -51.019  -0.440 -23.970  0.00  0.00    +0.000 N 
ATOM      8  C   UNL     1     -49.606  -1.655 -25.669  0.00  0.00    +0.000 C 
ATOM      9  C   UNL     1     -48.647  -2.847 -25.717  0.00  0.00    +0.000 C 
ATOM     10  C   UNL     1     -47.328  -2.519 -25.011  0.00  0.00    +0.000 C 
ATOM     11  C   UNL     1     -47.528  -1.819 -23.697  0.00  0.00    +0.000 C 
ATOM     12  O   UNL     1     -46.566  -1.759 -22.886  0.00  0.00    +0.000 OA
ATOM     13  C   UNL     1     -48.350  -3.171 -27.165  0.00  0.00    +0.000 C 
ATOM     14  C   UNL     1     -49.290  -4.067 -25.076  0.00  0.00    +0.000 C 
ATOM     15  H   UNL     1     -51.767  -0.489 -24.608  0.00  0.00    +0.000 HD
ENDROOT
BRANCH   4  16
ATOM     16  C   UNL     1     -49.264  -1.875 -21.019  0.00  0.00    +0.000 A 
ATOM     17  C   UNL     1     -50.267  -2.829 -21.235  0.00  0.00    +0.000 A 
ATOM     18  C   UNL     1     -50.407  -3.904 -20.357  0.00  0.00    +0.000 A 
ATOM     19  C   UNL     1     -49.538  -4.013 -19.269  0.00  0.00    +0.000 A 
ATOM     20  N   UNL     1     -48.568  -3.080 -19.075  0.00  0.00    +0.000 NA
ATOM     21  C   UNL     1     -48.414  -2.025 -19.919  0.00  0.00    +0.000 A 
ENDBRANCH   4  16
BRANCH   3  22
ATOM     22  C   UNL     1     -50.252   1.122 -20.578  0.00  0.00    +0.000 C 
ATOM     23  O   UNL     1     -49.939   2.342 -20.615  0.00  0.00    +0.000 OA
ATOM     24  N   UNL     1     -50.636   0.517 -19.334  0.00  0.00    +0.000 N 
ATOM     25  H   UNL     1     -50.834  -0.447 -19.358  0.00  0.00    +0.000 HD
BRANCH  24  26
ATOM     26  C   UNL     1     -50.765   1.164 -18.061  0.00  0.00    +0.000 A 
ATOM     27  C   UNL     1     -49.963   0.726 -17.001  0.00  0.00    +0.000 A 
ATOM     28  C   UNL     1     -50.062   1.329 -15.743  0.00  0.00    +0.000 A 
ATOM     29  C   UNL     1     -50.966   2.374 -15.538  0.00  0.00    +0.000 A 
ATOM     30  C   UNL     1     -51.771   2.817 -16.591  0.00  0.00    +0.000 A 
ATOM     31  C   UNL     1     -51.671   2.214 -17.848  0.00  0.00    +0.000 A 
ATOM     32  F   UNL     1     -52.648   3.830 -16.393  0.00  0.00    +0.000 F 
ENDBRANCH  24  26
ENDBRANCH   3  22
TORSDOF 3
