REMARK  Name = ZINC000012786823
REMARK  2 active torsions:
REMARK  status: ('A' for Active; 'I' for Inactive)
REMARK    1  A    between atoms: C_1  and  C_15
REMARK    2  A    between atoms: N_13  and  C_21
REMARK                            x       y       z     vdW  Elec       q    Type
REMARK                         _______ _______ _______ _____ _____    ______ ____
ROOT
ATOM      1  C   UNL     1     -51.071   0.124 -19.433  0.00  0.00    +0.000 A 
ATOM      2  C   UNL     1     -51.950   0.546 -20.439  0.00  0.00    +0.000 A 
ATOM      3  C   UNL     1     -52.733   1.686 -20.258  0.00  0.00    +0.000 A 
ATOM      4  O   UNL     1     -53.516   2.059 -21.169  0.00  0.00    +0.000 OA
ATOM      5  N   UNL     1     -52.653   2.393 -19.102  0.00  0.00    +0.000 N 
ATOM      6  C   UNL     1     -51.819   2.021 -18.096  0.00  0.00    +0.000 A 
ATOM      7  C   UNL     1     -51.766   2.783 -16.925  0.00  0.00    +0.000 A 
ATOM      8  C   UNL     1     -50.904   2.417 -15.888  0.00  0.00    +0.000 A 
ATOM      9  C   UNL     1     -50.091   1.289 -16.019  0.00  0.00    +0.000 A 
ATOM     10  C   UNL     1     -50.139   0.521 -17.185  0.00  0.00    +0.000 A 
ATOM     11  C   UNL     1     -51.005   0.871 -18.234  0.00  0.00    +0.000 A 
ATOM     12  H   UNL     1     -53.213   3.195 -18.989  0.00  0.00    +0.000 HD
ENDROOT
BRANCH   1  15
ATOM     13  N   UNL     1     -50.246  -1.780 -20.924  0.00  0.00    +0.000 N 
ATOM     14  C   UNL     1     -49.723  -3.139 -21.009  0.00  0.00    +0.000 C 
ATOM     15  C   UNL     1     -50.276  -1.112 -19.648  0.00  0.00    +0.000 C 
ATOM     16  O   UNL     1     -49.626  -1.598 -18.682  0.00  0.00    +0.000 OA
BRANCH  13  21
ATOM     17  C   UNL     1     -49.356  -1.270 -25.636  0.00  0.00    +0.000 C 
ATOM     18  C   UNL     1     -50.462  -0.431 -25.016  0.00  0.00    +0.000 C 
ATOM     19  C   UNL     1     -49.910   0.512 -23.943  0.00  0.00    +0.000 C 
ATOM     20  C   UNL     1     -49.472  -0.250 -22.693  0.00  0.00    +0.000 C 
ATOM     21  C   UNL     1     -50.634  -1.079 -22.148  0.00  0.00    +0.000 C 
ATOM     22  C   UNL     1     -51.133  -2.065 -23.203  0.00  0.00    +0.000 C 
ATOM     23  C   UNL     1     -51.581  -1.314 -24.456  0.00  0.00    +0.000 C 
ENDBRANCH  13  21
ENDBRANCH   1  15
TORSDOF 2
