REMARK  Name = ZINC000009112329 ZINC09112329 PubChem-40938212
REMARK  5 active torsions:
REMARK  status: ('A' for Active; 'I' for Inactive)
REMARK    1  A    between atoms: N_1  and  C_10
REMARK    2  A    between atoms: C_2  and  C_18
REMARK    3  A    between atoms: C_5  and  O_15
REMARK    4  A    between atoms: O_15  and  C_17
REMARK    5  A    between atoms: C_19  and  C_20
REMARK                            x       y       z     vdW  Elec       q    Type
REMARK                         _______ _______ _______ _____ _____    ______ ____
ROOT
ATOM      1  N   UNL     1     -52.389   2.470 -18.858  0.00  0.00    +0.000 N 
ATOM      2  C   UNL     1     -52.489   2.143 -20.250  0.00  0.00    +0.000 C 
ATOM      3  O   UNL     1     -53.480   2.566 -20.904  0.00  0.00    +0.000 OA
ATOM      4  H   UNL     1     -52.974   3.194 -18.535  0.00  0.00    +0.000 HD
ENDROOT
BRANCH   1  10
ATOM      5  C   UNL     1     -51.461   2.370 -16.550  0.00  0.00    +0.000 A 
ATOM      6  C   UNL     1     -50.675   1.701 -15.591  0.00  0.00    +0.000 A 
ATOM      7  C   UNL     1     -49.978   0.559 -15.967  0.00  0.00    +0.000 A 
ATOM      8  C   UNL     1     -50.035   0.078 -17.237  0.00  0.00    +0.000 A 
ATOM      9  C   UNL     1     -50.806   0.693 -18.215  0.00  0.00    +0.000 A 
ATOM     10  C   UNL     1     -51.531   1.857 -17.883  0.00  0.00    +0.000 A 
ATOM     11  O   UNL     1     -49.271  -1.058 -17.378  0.00  0.00    +0.000 OA
ATOM     12  C   UNL     1     -48.637  -1.381 -16.140  0.00  0.00    +0.000 C 
ATOM     13  C   UNL     1     -49.093  -0.300 -15.137  0.00  0.00    +0.000 C 
ATOM     14  C   UNL     1     -49.102  -2.745 -15.672  0.00  0.00    +0.000 C 
BRANCH   5  15
ATOM     15  O   UNL     1     -52.119   3.534 -16.124  0.00  0.00    +0.000 OA
BRANCH  15  17
ATOM     16  C   UNL     1     -51.045   4.965 -14.527  0.00  0.00    +0.000 C 
ATOM     17  C   UNL     1     -51.497   4.802 -15.965  0.00  0.00    +0.000 C 
ENDBRANCH  15  17
ENDBRANCH   5  15
ENDBRANCH   1  10
BRANCH   2  18
ATOM     18  C   UNL     1     -51.437   1.371 -20.930  0.00  0.00    +0.000 C 
ATOM     19  C   UNL     1     -51.557   0.961 -22.188  0.00  0.00    +0.000 C 
BRANCH  19  20
ATOM     20  C   UNL     1     -50.493   0.200 -22.853  0.00  0.00    +0.000 A 
ATOM     21  C   UNL     1     -49.515  -0.564 -22.208  0.00  0.00    +0.000 A 
ATOM     22  C   UNL     1     -48.768  -1.054 -23.257  0.00  0.00    +0.000 A 
ATOM     23  C   UNL     1     -47.652  -1.885 -23.250  0.00  0.00    +0.000 A 
ATOM     24  C   UNL     1     -47.091  -2.231 -24.492  0.00  0.00    +0.000 A 
ATOM     25  C   UNL     1     -47.654  -1.750 -25.692  0.00  0.00    +0.000 A 
ATOM     26  C   UNL     1     -48.785  -0.913 -25.666  0.00  0.00    +0.000 A 
ATOM     27  C   UNL     1     -49.313  -0.586 -24.421  0.00  0.00    +0.000 A 
ATOM     28  O   UNL     1     -50.348   0.169 -24.164  0.00  0.00    +0.000 OA
ENDBRANCH  19  20
ENDBRANCH   2  18
TORSDOF 5
