REMARK  Name = ZINC000096134108 PubChem-97435384
REMARK  9 active torsions:
REMARK  status: ('A' for Active; 'I' for Inactive)
REMARK    1  A    between atoms: C_2  and  O_24
REMARK    2  A    between atoms: C_6  and  C_9
REMARK    3  A    between atoms: C_7  and  O_25
REMARK    4  A    between atoms: C_8  and  O_25
REMARK    5  A    between atoms: C_10  and  C_11
REMARK    6  A    between atoms: C_12  and  C_13
REMARK    7  A    between atoms: C_12  and  N_30
REMARK    8  A    between atoms: C_13  and  C_14
REMARK    9  A    between atoms: C_13  and  N_31
REMARK                            x       y       z     vdW  Elec       q    Type
REMARK                         _______ _______ _______ _____ _____    ______ ____
ROOT
ATOM      1  C   UNL     1     -53.343   2.489 -19.090  0.00  0.00    +0.000 C 
ATOM      2  O   UNL     1     -53.663   2.353 -20.301  0.00  0.00    +0.000 OA
ATOM      3  N   UNL     1     -51.995   2.251 -18.676  0.00  0.00    +0.000 NA
ENDROOT
BRANCH   1   5
ATOM      4  C   UNL     1     -54.226   3.307 -16.879  0.00  0.00    +0.000 C 
ATOM      5  C   UNL     1     -54.395   2.817 -18.113  0.00  0.00    +0.000 C 
BRANCH   4  10
ATOM      6  C   UNL     1     -51.334   3.852 -14.441  0.00  0.00    +0.000 A 
ATOM      7  C   UNL     1     -50.536   4.694 -15.221  0.00  0.00    +0.000 A 
ATOM      8  C   UNL     1     -50.938   5.087 -16.492  0.00  0.00    +0.000 A 
ATOM      9  C   UNL     1     -52.142   4.627 -17.011  0.00  0.00    +0.000 A 
ATOM     10  C   UNL     1     -52.961   3.764 -16.271  0.00  0.00    +0.000 A 
ATOM     11  C   UNL     1     -52.583   3.398 -14.948  0.00  0.00    +0.000 A 
BRANCH   6  13
ATOM     12  C   UNL     1     -51.465   2.641 -12.249  0.00  0.00    +0.000 C 
ATOM     13  O   UNL     1     -50.836   3.517 -13.172  0.00  0.00    +0.000 OA
ENDBRANCH   6  13
BRANCH  11  14
ATOM     14  O   UNL     1     -53.385   2.582 -14.132  0.00  0.00    +0.000 OA
BRANCH  14  15
ATOM     15  C   UNL     1     -54.801   2.478 -14.212  0.00  0.00    +0.000 C 
ATOM     16  F   UNL     1     -55.235   1.470 -13.373  0.00  0.00    +0.000 F 
ATOM     17  F   UNL     1     -55.378   3.674 -13.827  0.00  0.00    +0.000 F 
ENDBRANCH  14  15
ENDBRANCH  11  14
ENDBRANCH   4  10
ENDBRANCH   1   5
BRANCH   3  18
ATOM     18  C   UNL     1     -50.948   1.833 -19.597  0.00  0.00    +0.000 C 
BRANCH  18  19
ATOM     19  C   UNL     1     -51.133   0.366 -19.980  0.00  0.00    +0.000 C 
BRANCH  19  20
ATOM     20  C   UNL     1     -50.260  -0.029 -21.146  0.00  0.00    +0.000 A 
ATOM     21  C   UNL     1     -48.864   0.122 -21.109  0.00  0.00    +0.000 A 
ATOM     22  C   UNL     1     -48.087  -0.239 -22.213  0.00  0.00    +0.000 A 
ATOM     23  C   UNL     1     -48.700  -0.748 -23.361  0.00  0.00    +0.000 A 
ATOM     24  C   UNL     1     -50.089  -0.891 -23.408  0.00  0.00    +0.000 A 
ATOM     25  C   UNL     1     -50.867  -0.530 -22.303  0.00  0.00    +0.000 A 
ATOM     26 CL   UNL     1     -47.727  -1.200 -24.744  0.00  0.00    +0.000 Cl
ENDBRANCH  19  20
BRANCH  19  32
ATOM     27  C   UNL     1     -51.521  -1.860 -19.174  0.00  0.00    +0.000 C 
ATOM     28  C   UNL     1     -51.355  -2.807 -17.984  0.00  0.00    +0.000 C 
ATOM     29  C   UNL     1     -49.623  -1.621 -17.142  0.00  0.00    +0.000 C 
ATOM     30  C   UNL     1     -49.676  -0.597 -18.278  0.00  0.00    +0.000 C 
ATOM     31  O   UNL     1     -49.996  -2.888 -17.627  0.00  0.00    +0.000 OA
ATOM     32  N   UNL     1     -51.044  -0.522 -18.807  0.00  0.00    +0.000 NA
ENDBRANCH  19  32
ENDBRANCH  18  19
ENDBRANCH   3  18
TORSDOF 9
