REMARK  Name = ZINC000224489095
REMARK  3 active torsions:
REMARK  status: ('A' for Active; 'I' for Inactive)
REMARK    1  A    between atoms: C_1  and  C_25
REMARK    2  A    between atoms: N_3  and  C_5
REMARK    3  A    between atoms: N_27  and  S_28
REMARK                            x       y       z     vdW  Elec       q    Type
REMARK                         _______ _______ _______ _____ _____    ______ ____
ROOT
ATOM      1  C   UNL     1     -52.197   2.121 -19.329  0.00  0.00    +0.000 C 
ATOM      2  O   UNL     1     -53.068   2.740 -19.995  0.00  0.00    +0.000 OA
ATOM      3  N   UNL     1     -52.210   2.234 -17.899  0.00  0.00    +0.000 N 
ATOM      4  H   UNL     1     -53.016   2.632 -17.496  0.00  0.00    +0.000 HD
ENDROOT
BRANCH   3   5
ATOM      5  C   UNL     1     -51.173   1.827 -16.991  0.00  0.00    +0.000 A 
ATOM      6  C   UNL     1     -50.369   0.685 -17.248  0.00  0.00    +0.000 A 
ATOM      7  C   UNL     1     -49.341   0.297 -16.363  0.00  0.00    +0.000 A 
ATOM      8  C   UNL     1     -49.126   1.073 -15.224  0.00  0.00    +0.000 A 
ATOM      9  C   UNL     1     -49.891   2.167 -14.992  0.00  0.00    +0.000 A 
ATOM     10  C   UNL     1     -49.546   2.806 -13.845  0.00  0.00    +0.000 A 
ATOM     11  C   UNL     1     -50.235   3.955 -13.447  0.00  0.00    +0.000 A 
ATOM     12  C   UNL     1     -51.283   4.424 -14.269  0.00  0.00    +0.000 A 
ATOM     13  C   UNL     1     -51.626   3.745 -15.462  0.00  0.00    +0.000 A 
ATOM     14  C   UNL     1     -50.916   2.589 -15.833  0.00  0.00    +0.000 A 
ATOM     15  C   UNL     1     -48.413   2.095 -13.178  0.00  0.00    +0.000 C 
ATOM     16  C   UNL     1     -48.117   0.905 -14.134  0.00  0.00    +0.000 C 
ENDBRANCH   3   5
BRANCH   1  25
ATOM     17  C   UNL     1     -49.476   0.477 -25.944  0.00  0.00    +0.000 C 
ATOM     18  C   UNL     1     -49.766   0.068 -24.545  0.00  0.00    +0.000 A 
ATOM     19  C   UNL     1     -49.465  -1.230 -24.119  0.00  0.00    +0.000 A 
ATOM     20  C   UNL     1     -49.742  -1.619 -22.806  0.00  0.00    +0.000 A 
ATOM     21  C   UNL     1     -50.319  -0.709 -21.910  0.00  0.00    +0.000 A 
ATOM     22  C   UNL     1     -50.604   0.601 -22.338  0.00  0.00    +0.000 A 
ATOM     23  C   UNL     1     -50.336   0.984 -23.655  0.00  0.00    +0.000 A 
ATOM     24  O   UNL     1     -51.162   1.516 -21.437  0.00  0.00    +0.000 OA
ATOM     25  C   UNL     1     -51.220   1.230 -20.036  0.00  0.00    +0.000 C 
ATOM     26  C   UNL     1     -51.574  -0.238 -19.808  0.00  0.00    +0.000 C 
ATOM     27  N   UNL     1     -50.649  -1.080 -20.561  0.00  0.00    +0.000 N 
BRANCH  27  28
ATOM     28  S   UNL     1     -49.928  -2.452 -19.777  0.00  0.00    +0.000 S 
ATOM     29  C   UNL     1     -48.165  -2.235 -19.670  0.00  0.00    +0.000 C 
ATOM     30  O   UNL     1     -50.245  -3.700 -20.553  0.00  0.00    +0.000 OA
ATOM     31  O   UNL     1     -50.478  -2.585 -18.385  0.00  0.00    +0.000 OA
ENDBRANCH  27  28
ENDBRANCH   1  25
TORSDOF 3
