REMARK  Name = ZINC000095989116 PubChem-97337050
REMARK  7 active torsions:
REMARK  status: ('A' for Active; 'I' for Inactive)
REMARK    1  A    between atoms: C_2  and  C_4
REMARK    2  A    between atoms: C_4  and  N_23
REMARK    3  A    between atoms: C_7  and  C_8
REMARK    4  A    between atoms: C_8  and  N_25
REMARK    5  A    between atoms: C_9  and  C_10
REMARK    6  A    between atoms: C_13  and  C_14
REMARK    7  A    between atoms: C_20  and  N_26
REMARK                            x       y       z     vdW  Elec       q    Type
REMARK                         _______ _______ _______ _____ _____    ______ ____
ROOT
ATOM      1  C   UNL     1     -51.684   0.093 -19.985  0.00  0.00    +0.000 C 
ATOM      2  C   UNL     1     -51.990  -0.997 -18.950  0.00  0.00    +0.000 C 
ATOM      3  C   UNL     1     -50.655  -1.368 -18.442  0.00  0.00    +0.000 C 
ATOM      4  C   UNL     1     -50.154   0.276 -20.038  0.00  0.00    +0.000 C 
ATOM      5  N   UNL     1     -49.606  -0.639 -19.054  0.00  0.00    +0.000 N 
ATOM      6  O   UNL     1     -50.464  -2.236 -17.550  0.00  0.00    +0.000 OA
ENDROOT
BRANCH   4   7
ATOM      7  C   UNL     1     -49.629  -0.027 -21.408  0.00  0.00    +0.000 A 
ATOM      8  C   UNL     1     -49.771  -1.303 -21.974  0.00  0.00    +0.000 A 
ATOM      9  C   UNL     1     -49.282  -1.561 -23.258  0.00  0.00    +0.000 A 
ATOM     10  C   UNL     1     -48.646  -0.543 -23.982  0.00  0.00    +0.000 A 
ATOM     11  C   UNL     1     -48.495   0.726 -23.413  0.00  0.00    +0.000 A 
ATOM     12  C   UNL     1     -48.987   0.984 -22.131  0.00  0.00    +0.000 A 
ATOM     13 CL   UNL     1     -48.038  -0.840 -25.600  0.00  0.00    +0.000 Cl
ATOM     14  F   UNL     1     -49.438  -2.797 -23.797  0.00  0.00    +0.000 F 
ENDBRANCH   4   7
BRANCH   1  15
ATOM     15  C   UNL     1     -52.347   1.376 -19.605  0.00  0.00    +0.000 C 
ATOM     16  N   UNL     1     -51.963   2.058 -18.409  0.00  0.00    +0.000 NA
ATOM     17  O   UNL     1     -53.260   1.838 -20.338  0.00  0.00    +0.000 OA
BRANCH  16  18
ATOM     18  C   UNL     1     -52.577   3.312 -18.007  0.00  0.00    +0.000 C 
BRANCH  18  21
ATOM     19  C   UNL     1     -51.802   3.850 -14.537  0.00  0.00    +0.000 A 
ATOM     20  C   UNL     1     -50.839   4.623 -15.167  0.00  0.00    +0.000 A 
ATOM     21  C   UNL     1     -52.054   3.718 -16.670  0.00  0.00    +0.000 A 
ATOM     22  N   UNL     1     -52.548   3.281 -15.498  0.00  0.00    +0.000 N 
ATOM     23  N   UNL     1     -50.997   4.535 -16.507  0.00  0.00    +0.000 NA
BRANCH  22  24
ATOM     24  C   UNL     1     -53.687   2.393 -15.298  0.00  0.00    +0.000 C 
BRANCH  24  26
ATOM     25  C   UNL     1     -54.472   0.305 -14.219  0.00  0.00    +0.000 C 
ATOM     26  C   UNL     1     -53.249   1.089 -14.647  0.00  0.00    +0.000 C 
ATOM     27  C   UNL     1     -52.444   0.256 -15.623  0.00  0.00    +0.000 C 
ENDBRANCH  24  26
ENDBRANCH  22  24
ENDBRANCH  18  21
ENDBRANCH  16  18
ENDBRANCH   1  15
BRANCH   5  28
ATOM     28  C   UNL     1     -48.188  -0.697 -18.702  0.00  0.00    +0.000 C 
ATOM     29  C   UNL     1     -47.977  -0.321 -17.245  0.00  0.00    +0.000 C 
ATOM     30  C   UNL     1     -47.623  -2.078 -18.977  0.00  0.00    +0.000 C 
ENDBRANCH   5  28
TORSDOF 7
