REMARK  Name = ZINC000032740599 ZINC32740599 CSC026941728 MCULE-1168912559 MolPort-005-697-480 PubChem-39966225
REMARK  4 active torsions:
REMARK  status: ('A' for Active; 'I' for Inactive)
REMARK    1  A    between atoms: N_1  and  C_22
REMARK    2  A    between atoms: C_2  and  C_5
REMARK    3  A    between atoms: C_17  and  S_24
REMARK    4  A    between atoms: S_24  and  N_28
REMARK                            x       y       z     vdW  Elec       q    Type
REMARK                         _______ _______ _______ _____ _____    ______ ____
ROOT
ATOM      1  N   UNL     1     -52.061   2.293 -18.669  0.00  0.00    +0.000 N 
ATOM      2  C   UNL     1     -52.253   1.641 -19.934  0.00  0.00    +0.000 C 
ATOM      3  O   UNL     1     -53.373   1.745 -20.501  0.00  0.00    +0.000 OA
ATOM      4  H   UNL     1     -52.519   3.155 -18.536  0.00  0.00    +0.000 HD
ENDROOT
BRANCH   2   5
ATOM      5  C   UNL     1     -51.167   0.900 -20.608  0.00  0.00    +0.000 A 
ATOM      6  C   UNL     1     -49.828   1.295 -20.457  0.00  0.00    +0.000 A 
ATOM      7  C   UNL     1     -48.803   0.600 -21.106  0.00  0.00    +0.000 A 
ATOM      8  C   UNL     1     -49.112  -0.492 -21.919  0.00  0.00    +0.000 A 
ATOM      9  N   UNL     1     -48.130  -1.180 -22.555  0.00  0.00    +0.000 NA
ATOM     10  C   UNL     1     -48.417  -2.244 -23.353  0.00  0.00    +0.000 A 
ATOM     11  C   UNL     1     -47.300  -2.965 -24.029  0.00  0.00    +0.000 C 
ATOM     12  C   UNL     1     -49.757  -2.637 -23.523  0.00  0.00    +0.000 A 
ATOM     13  C   UNL     1     -50.127  -3.795 -24.388  0.00  0.00    +0.000 C 
ATOM     14  N   UNL     1     -50.741  -1.947 -22.886  0.00  0.00    +0.000 NA
ATOM     15  C   UNL     1     -50.453  -0.886 -22.088  0.00  0.00    +0.000 A 
ATOM     16  C   UNL     1     -51.474  -0.189 -21.438  0.00  0.00    +0.000 A 
ENDBRANCH   2   5
BRANCH   1  22
ATOM     17  C   UNL     1     -49.759   0.131 -16.649  0.00  0.00    +0.000 A 
ATOM     18  C   UNL     1     -49.754   0.814 -15.431  0.00  0.00    +0.000 A 
ATOM     19  C   UNL     1     -50.504   1.983 -15.281  0.00  0.00    +0.000 A 
ATOM     20  C   UNL     1     -51.261   2.478 -16.349  0.00  0.00    +0.000 A 
ATOM     21  C   UNL     1     -52.051   3.726 -16.153  0.00  0.00    +0.000 C 
ATOM     22  C   UNL     1     -51.262   1.802 -17.582  0.00  0.00    +0.000 A 
ATOM     23  C   UNL     1     -50.520   0.619 -17.715  0.00  0.00    +0.000 A 
BRANCH  17  24
ATOM     24  S   UNL     1     -48.823  -1.342 -16.840  0.00  0.00    +0.000 S 
ATOM     25  O   UNL     1     -48.182  -1.355 -18.202  0.00  0.00    +0.000 OA
ATOM     26  O   UNL     1     -47.740  -1.371 -15.797  0.00  0.00    +0.000 OA
BRANCH  24  28
ATOM     27  C   UNL     1     -49.228  -3.846 -17.323  0.00  0.00    +0.000 C 
ATOM     28  N   UNL     1     -49.856  -2.723 -16.648  0.00  0.00    +0.000 NA
ATOM     29  C   UNL     1     -49.892  -3.054 -15.233  0.00  0.00    +0.000 C 
ENDBRANCH  24  28
ENDBRANCH  17  24
ENDBRANCH   1  22
TORSDOF 4
