REMARK  Name = ZINC000009668994 ZINC09668994 MCULE-8076656681 MolPort-002-986-247 PubChem-16479684
REMARK  7 active torsions:
REMARK  status: ('A' for Active; 'I' for Inactive)
REMARK    1  A    between atoms: C_1  and  C_2
REMARK    2  A    between atoms: C_1  and  S_16
REMARK    3  A    between atoms: N_4  and  C_6
REMARK    4  A    between atoms: C_8  and  N_13
REMARK    5  A    between atoms: S_16  and  C_20
REMARK    6  A    between atoms: C_17  and  C_29
REMARK    7  A    between atoms: N_21  and  C_22
REMARK                            x       y       z     vdW  Elec       q    Type
REMARK                         _______ _______ _______ _____ _____    ______ ____
ROOT
ATOM      1  C   UNL     1     -51.917   0.640 -20.949  0.00  0.00    +0.000 C 
ENDROOT
BRANCH   1   2
ATOM      2  C   UNL     1     -52.598   1.780 -20.267  0.00  0.00    +0.000 C 
ATOM      3  O   UNL     1     -53.533   2.368 -20.870  0.00  0.00    +0.000 OA
ATOM      4  N   UNL     1     -52.216   2.243 -18.964  0.00  0.00    +0.000 N 
ATOM      5  H   UNL     1     -52.555   3.130 -18.703  0.00  0.00    +0.000 HD
BRANCH   4   6
ATOM      6  C   UNL     1     -51.397   1.568 -17.994  0.00  0.00    +0.000 A 
ATOM      7  C   UNL     1     -50.779   0.342 -18.283  0.00  0.00    +0.000 A 
ATOM      8  C   UNL     1     -50.005  -0.323 -17.323  0.00  0.00    +0.000 A 
ATOM      9  C   UNL     1     -49.860   0.245 -16.051  0.00  0.00    +0.000 A 
ATOM     10  C   UNL     1     -50.477   1.460 -15.747  0.00  0.00    +0.000 A 
ATOM     11  C   UNL     1     -51.244   2.122 -16.710  0.00  0.00    +0.000 A 
ATOM     12  C   UNL     1     -51.893   3.414 -16.347  0.00  0.00    +0.000 C 
BRANCH   8  13
ATOM     13  N   UNL     1     -49.364  -1.564 -17.646  0.00  0.00    +0.000 N 
ATOM     14  O   UNL     1     -50.023  -2.756 -17.441  0.00  0.00    +0.000 OA
ATOM     15  O   UNL     1     -48.215  -1.579 -18.134  0.00  0.00    +0.000 OA
ENDBRANCH   8  13
ENDBRANCH   4   6
ENDBRANCH   1   2
BRANCH   1  16
ATOM     16  S   UNL     1     -51.394   1.123 -22.620  0.00  0.00    +0.000 S 
BRANCH  16  20
ATOM     17  C   UNL     1     -48.352  -1.260 -22.764  0.00  0.00    +0.000 A 
ATOM     18  N   UNL     1     -48.066  -0.591 -21.631  0.00  0.00    +0.000 NA
ATOM     19  N   UNL     1     -49.027   0.303 -21.453  0.00  0.00    +0.000 NA
ATOM     20  C   UNL     1     -49.880   0.172 -22.487  0.00  0.00    +0.000 A 
ATOM     21  N   UNL     1     -49.491  -0.807 -23.335  0.00  0.00    +0.000 N 
BRANCH  21  22
ATOM     22  C   UNL     1     -50.135  -1.266 -24.542  0.00  0.00    +0.000 A 
ATOM     23  C   UNL     1     -50.807  -2.499 -24.569  0.00  0.00    +0.000 A 
ATOM     24  C   UNL     1     -51.435  -2.941 -25.738  0.00  0.00    +0.000 A 
ATOM     25  C   UNL     1     -51.392  -2.156 -26.894  0.00  0.00    +0.000 A 
ATOM     26  C   UNL     1     -50.721  -0.931 -26.881  0.00  0.00    +0.000 A 
ATOM     27  C   UNL     1     -50.097  -0.490 -25.712  0.00  0.00    +0.000 A 
ENDBRANCH  21  22
BRANCH  17  29
ATOM     28  C   UNL     1     -47.081  -2.040 -24.729  0.00  0.00    +0.000 C 
ATOM     29  C   UNL     1     -47.493  -2.355 -23.305  0.00  0.00    +0.000 C 
ENDBRANCH  17  29
ENDBRANCH  16  20
ENDBRANCH   1  16
TORSDOF 7
