REMARK  Name = ZINC000031808022
REMARK  1 active torsions:
REMARK  status: ('A' for Active; 'I' for Inactive)
REMARK    1  A    between atoms: C_7  and  C_24
REMARK                            x       y       z     vdW  Elec       q    Type
REMARK                         _______ _______ _______ _____ _____    ______ ____
ROOT
ATOM      1  C   UNL     1     -47.444  -1.464 -24.235  0.00  0.00    +0.000 C 
ATOM      2  C   UNL     1     -48.416  -1.252 -23.127  0.00  0.00    +0.000 A 
ATOM      3  N   UNL     1     -49.370  -0.305 -23.150  0.00  0.00    +0.000 NA
ATOM      4  N   UNL     1     -50.051  -0.396 -22.020  0.00  0.00    +0.000 N 
ATOM      5  C   UNL     1     -49.569  -1.417 -21.275  0.00  0.00    +0.000 A 
ATOM      6  C   UNL     1     -48.492  -1.984 -21.954  0.00  0.00    +0.000 A 
ATOM      7  C   UNL     1     -47.605  -3.154 -21.627  0.00  0.00    +0.000 C 
ATOM      8  S   UNL     1     -47.325  -3.446 -19.852  0.00  0.00    +0.000 S 
ATOM      9  C   UNL     1     -49.009  -4.046 -19.584  0.00  0.00    +0.000 C 
ATOM     10  C   UNL     1     -49.886  -2.923 -19.173  0.00  0.00    +0.000 C 
ATOM     11  O   UNL     1     -50.442  -2.980 -18.047  0.00  0.00    +0.000 OA
ATOM     12  N   UNL     1     -50.154  -1.802 -20.020  0.00  0.00    +0.000 N 
ATOM     13  H   UNL     1     -50.855  -1.194 -19.688  0.00  0.00    +0.000 HD
ATOM     14  C   UNL     1     -51.171   0.451 -21.723  0.00  0.00    +0.000 A 
ATOM     15  N   UNL     1     -52.031   0.823 -22.718  0.00  0.00    +0.000 NA
ATOM     16  C   UNL     1     -53.094   1.654 -22.474  0.00  0.00    +0.000 A 
ATOM     17  N   UNL     1     -53.312   2.151 -21.220  0.00  0.00    +0.000 NA
ATOM     18  C   UNL     1     -52.453   1.795 -20.235  0.00  0.00    +0.000 A 
ATOM     19  N   UNL     1     -52.471   2.223 -18.967  0.00  0.00    +0.000 N 
ATOM     20  C   UNL     1     -51.371   1.620 -18.439  0.00  0.00    +0.000 A 
ATOM     21  N   UNL     1     -50.683   0.852 -19.327  0.00  0.00    +0.000 NA
ATOM     22  C   UNL     1     -51.402   0.977 -20.451  0.00  0.00    +0.000 A 
ATOM     23  H   UNL     1     -53.117   2.822 -18.527  0.00  0.00    +0.000 HD
ENDROOT
BRANCH   7  24
ATOM     24  C   UNL     1     -47.899  -4.400 -22.421  0.00  0.00    +0.000 A 
ATOM     25  C   UNL     1     -49.142  -4.564 -23.053  0.00  0.00    +0.000 A 
ATOM     26  C   UNL     1     -49.416  -5.717 -23.793  0.00  0.00    +0.000 A 
ATOM     27  C   UNL     1     -48.449  -6.716 -23.908  0.00  0.00    +0.000 A 
ATOM     28  C   UNL     1     -47.208  -6.563 -23.286  0.00  0.00    +0.000 A 
ATOM     29  C   UNL     1     -46.927  -5.411 -22.544  0.00  0.00    +0.000 A 
ATOM     30 CL   UNL     1     -45.347  -5.265 -21.789  0.00  0.00    +0.000 Cl
ENDBRANCH   7  24
TORSDOF 1
