REMARK  Name = ZINC000031809031
REMARK  1 active torsions:
REMARK  status: ('A' for Active; 'I' for Inactive)
REMARK    1  A    between atoms: C_7  and  C_24
REMARK                            x       y       z     vdW  Elec       q    Type
REMARK                         _______ _______ _______ _____ _____    ______ ____
ROOT
ATOM      1  C   UNL     1     -47.286  -1.593 -23.942  0.00  0.00    +0.000 C 
ATOM      2  C   UNL     1     -48.281  -1.342 -22.861  0.00  0.00    +0.000 A 
ATOM      3  N   UNL     1     -49.247  -0.411 -22.946  0.00  0.00    +0.000 NA
ATOM      4  N   UNL     1     -49.947  -0.458 -21.824  0.00  0.00    +0.000 N 
ATOM      5  C   UNL     1     -49.463  -1.435 -21.023  0.00  0.00    +0.000 A 
ATOM      6  C   UNL     1     -48.367  -2.019 -21.656  0.00  0.00    +0.000 A 
ATOM      7  C   UNL     1     -47.470  -3.158 -21.258  0.00  0.00    +0.000 C 
ATOM      8  S   UNL     1     -47.217  -3.361 -19.467  0.00  0.00    +0.000 S 
ATOM      9  C   UNL     1     -48.897  -3.972 -19.199  0.00  0.00    +0.000 C 
ATOM     10  C   UNL     1     -49.797  -2.844 -18.857  0.00  0.00    +0.000 C 
ATOM     11  O   UNL     1     -50.372  -2.855 -17.739  0.00  0.00    +0.000 OA
ATOM     12  N   UNL     1     -50.066  -1.768 -19.761  0.00  0.00    +0.000 N 
ATOM     13  H   UNL     1     -50.780  -1.156 -19.471  0.00  0.00    +0.000 HD
ATOM     14  C   UNL     1     -51.083   0.386 -21.587  0.00  0.00    +0.000 A 
ATOM     15  N   UNL     1     -51.915   0.720 -22.620  0.00  0.00    +0.000 NA
ATOM     16  C   UNL     1     -52.992   1.548 -22.434  0.00  0.00    +0.000 A 
ATOM     17  N   UNL     1     -53.255   2.077 -21.201  0.00  0.00    +0.000 NA
ATOM     18  C   UNL     1     -52.425   1.758 -20.180  0.00  0.00    +0.000 A 
ATOM     19  N   UNL     1     -52.488   2.221 -18.926  0.00  0.00    +0.000 N 
ATOM     20  C   UNL     1     -51.400   1.645 -18.346  0.00  0.00    +0.000 A 
ATOM     21  N   UNL     1     -50.676   0.858 -19.190  0.00  0.00    +0.000 NA
ATOM     22  C   UNL     1     -51.360   0.944 -20.339  0.00  0.00    +0.000 A 
ATOM     23  H   UNL     1     -53.153   2.825 -18.525  0.00  0.00    +0.000 HD
ENDROOT
BRANCH   7  24
ATOM     24  C   UNL     1     -47.733  -4.445 -21.996  0.00  0.00    +0.000 A 
ATOM     25  C   UNL     1     -49.000  -4.704 -22.545  0.00  0.00    +0.000 A 
ATOM     26  C   UNL     1     -49.245  -5.894 -23.233  0.00  0.00    +0.000 A 
ATOM     27  C   UNL     1     -48.225  -6.837 -23.380  0.00  0.00    +0.000 A 
ATOM     28  F   UNL     1     -48.462  -7.992 -24.046  0.00  0.00    +0.000 F 
ATOM     29  C   UNL     1     -46.961  -6.588 -22.840  0.00  0.00    +0.000 A 
ATOM     30  C   UNL     1     -46.709  -5.399 -22.150  0.00  0.00    +0.000 A 
ATOM     31 CL   UNL     1     -45.098  -5.133 -21.500  0.00  0.00    +0.000 Cl
ENDBRANCH   7  24
TORSDOF 1
