REMARK  Name = ZINC000096114995 ZINC96114995 PubChem-97424600
REMARK  4 active torsions:
REMARK  status: ('A' for Active; 'I' for Inactive)
REMARK    1  A    between atoms: C_1  and  C_23
REMARK    2  A    between atoms: C_13  and  C_28
REMARK    3  A    between atoms: C_15  and  O_18
REMARK    4  A    between atoms: C_16  and  O_17
REMARK                            x       y       z     vdW  Elec       q    Type
REMARK                         _______ _______ _______ _____ _____    ______ ____
ROOT
ATOM      1  C   UNL     1     -51.379  -0.259 -20.688  0.00  0.00    +0.000 C 
ATOM      2  C   UNL     1     -51.733   1.074 -21.353  0.00  0.00    +0.000 C 
ATOM      3  C   UNL     1     -52.437   1.986 -20.411  0.00  0.00    +0.000 C 
ATOM      4  O   UNL     1     -53.352   2.741 -20.828  0.00  0.00    +0.000 OA
ATOM      5  O   UNL     1     -52.051   2.027 -19.075  0.00  0.00    +0.000 OA
ATOM      6  C   UNL     1     -51.233   1.042 -18.513  0.00  0.00    +0.000 A 
ATOM      7  C   UNL     1     -50.883  -0.115 -19.247  0.00  0.00    +0.000 A 
ATOM      8  C   UNL     1     -50.191  -1.158 -18.583  0.00  0.00    +0.000 A 
ATOM      9  C   UNL     1     -49.750  -0.987 -17.245  0.00  0.00    +0.000 A 
ATOM     10  C   UNL     1     -49.038  -2.046 -16.645  0.00  0.00    +0.000 A 
ATOM     11  O   UNL     1     -48.603  -1.967 -15.465  0.00  0.00    +0.000 OA
ATOM     12  C   UNL     1     -48.811  -3.214 -17.362  0.00  0.00    +0.000 A 
ATOM     13  C   UNL     1     -49.291  -3.324 -18.669  0.00  0.00    +0.000 A 
ATOM     14  O   UNL     1     -49.953  -2.307 -19.215  0.00  0.00    +0.000 OA
ATOM     15  C   UNL     1     -50.046   0.213 -16.565  0.00  0.00    +0.000 A 
ATOM     16  C   UNL     1     -50.797   1.207 -17.196  0.00  0.00    +0.000 A 
ENDROOT
BRANCH   1  19
ATOM     17  C   UNL     1     -48.211   0.191 -21.009  0.00  0.00    +0.000 C 
ATOM     18  C   UNL     1     -49.068  -0.775 -21.758  0.00  0.00    +0.000 A 
ATOM     19  C   UNL     1     -50.425  -0.977 -21.599  0.00  0.00    +0.000 A 
ATOM     20  C   UNL     1     -50.773  -1.933 -22.540  0.00  0.00    +0.000 A 
ATOM     21  N   UNL     1     -49.656  -2.292 -23.209  0.00  0.00    +0.000 NA
ATOM     22  N   UNL     1     -48.639  -1.594 -22.731  0.00  0.00    +0.000 N 
ATOM     23  C   UNL     1     -47.277  -1.715 -23.222  0.00  0.00    +0.000 C 
ENDBRANCH   1  19
BRANCH  13  24
ATOM     24  C   UNL     1     -49.069  -4.557 -19.452  0.00  0.00    +0.000 A 
ATOM     25  C   UNL     1     -48.507  -5.701 -18.861  0.00  0.00    +0.000 A 
ATOM     26  C   UNL     1     -48.300  -6.859 -19.616  0.00  0.00    +0.000 A 
ATOM     27  C   UNL     1     -48.653  -6.885 -20.967  0.00  0.00    +0.000 A 
ATOM     28  C   UNL     1     -49.214  -5.753 -21.564  0.00  0.00    +0.000 A 
ATOM     29  C   UNL     1     -49.421  -4.595 -20.809  0.00  0.00    +0.000 A 
ENDBRANCH  13  24
BRANCH  16  30
ATOM     30  O   UNL     1     -51.121   2.369 -16.504  0.00  0.00    +0.000 OA
ATOM     31  H   UNL     1     -50.831   2.484 -15.620  0.00  0.00    +0.000 HD
ENDBRANCH  16  30
BRANCH  15  32
ATOM     32  O   UNL     1     -49.620   0.426 -15.257  0.00  0.00    +0.000 OA
ATOM     33  H   UNL     1     -49.115  -0.229 -14.817  0.00  0.00    +0.000 HD
ENDBRANCH  15  32
TORSDOF 4
