REMARK  Name = ZINC000009380298 ZINC09380298 MolPort-002-580-065 PubChem-1960546
REMARK  4 active torsions:
REMARK  status: ('A' for Active; 'I' for Inactive)
REMARK    1  A    between atoms: N_1  and  C_29
REMARK    2  A    between atoms: C_8  and  C_12
REMARK    3  A    between atoms: C_25  and  O_32
REMARK    4  A    between atoms: C_28  and  O_33
REMARK                            x       y       z     vdW  Elec       q    Type
REMARK                         _______ _______ _______ _____ _____    ______ ____
ROOT
ATOM      1  N   UNL     1     -50.302   0.657 -18.156  0.00  0.00    +0.000 N 
ATOM      2  C   UNL     1     -51.331   1.555 -17.681  0.00  0.00    +0.000 C 
ATOM      3  S   UNL     1     -51.614   1.776 -16.081  0.00  0.00    +0.000 S 
ATOM      4  N   UNL     1     -52.176   2.229 -18.615  0.00  0.00    +0.000 N 
ATOM      5  C   UNL     1     -52.116   1.953 -20.013  0.00  0.00    +0.000 C 
ATOM      6  O   UNL     1     -52.891   2.564 -20.797  0.00  0.00    +0.000 OA
ATOM      7  C   UNL     1     -51.176   0.937 -20.518  0.00  0.00    +0.000 C 
ATOM      8  C   UNL     1     -51.292   0.530 -21.795  0.00  0.00    +0.000 C 
ATOM      9  C   UNL     1     -50.141   0.450 -19.573  0.00  0.00    +0.000 C 
ATOM     10  O   UNL     1     -49.076  -0.069 -20.009  0.00  0.00    +0.000 OA
ATOM     11  H   UNL     1     -52.816   2.901 -18.285  0.00  0.00    +0.000 HD
ENDROOT
BRANCH   8  12
ATOM     12  C   UNL     1     -50.585  -0.583 -22.453  0.00  0.00    +0.000 A 
ATOM     13  C   UNL     1     -51.006  -1.912 -22.298  0.00  0.00    +0.000 A 
ATOM     14  C   UNL     1     -50.357  -2.945 -22.977  0.00  0.00    +0.000 A 
ATOM     15  C   UNL     1     -49.304  -2.644 -23.860  0.00  0.00    +0.000 A 
ATOM     16  N   UNL     1     -48.620  -3.705 -24.550  0.00  0.00    +0.000 N 
ATOM     17  C   UNL     1     -47.376  -3.431 -25.259  0.00  0.00    +0.000 C 
ATOM     18  C   UNL     1     -47.484  -2.093 -25.983  0.00  0.00    +0.000 C 
ATOM     19  C   UNL     1     -47.779  -0.967 -24.987  0.00  0.00    +0.000 C 
ATOM     20  C   UNL     1     -48.908  -1.308 -24.053  0.00  0.00    +0.000 A 
ATOM     21  C   UNL     1     -49.552  -0.287 -23.349  0.00  0.00    +0.000 A 
ATOM     22  C   UNL     1     -49.151  -5.065 -24.525  0.00  0.00    +0.000 C 
ATOM     23  C   UNL     1     -49.736  -5.368 -23.148  0.00  0.00    +0.000 C 
ATOM     24  C   UNL     1     -50.837  -4.359 -22.817  0.00  0.00    +0.000 C 
ENDBRANCH   8  12
BRANCH   1  29
ATOM     25  C   UNL     1     -47.557   0.155 -15.650  0.00  0.00    +0.000 A 
ATOM     26  C   UNL     1     -47.576  -1.234 -15.508  0.00  0.00    +0.000 A 
ATOM     27  C   UNL     1     -48.492  -2.004 -16.228  0.00  0.00    +0.000 A 
ATOM     28  C   UNL     1     -49.406  -1.393 -17.102  0.00  0.00    +0.000 A 
ATOM     29  C   UNL     1     -49.394   0.007 -17.246  0.00  0.00    +0.000 A 
ATOM     30  C   UNL     1     -48.466   0.770 -16.523  0.00  0.00    +0.000 A 
BRANCH  25  32
ATOM     31  C   UNL     1     -47.011   1.916 -14.001  0.00  0.00    +0.000 C 
ATOM     32  O   UNL     1     -46.629   0.899 -14.916  0.00  0.00    +0.000 OA
ENDBRANCH  25  32
BRANCH  28  33
ATOM     33  O   UNL     1     -50.332  -2.153 -17.826  0.00  0.00    +0.000 OA
ATOM     34  C   UNL     1     -49.947  -3.143 -18.770  0.00  0.00    +0.000 C 
ENDBRANCH  28  33
ENDBRANCH   1  29
TORSDOF 4
