REMARK  Name = ZINC000032678714 ZINC32678714 CSC028068244 MCULE-2237337451 MolPort-005-701-896 PubChem-39911757
REMARK  4 active torsions:
REMARK  status: ('A' for Active; 'I' for Inactive)
REMARK    1  A    between atoms: C_1  and  N_19
REMARK    2  A    between atoms: C_5  and  C_7
REMARK    3  A    between atoms: C_17  and  C_25
REMARK    4  A    between atoms: C_21  and  C_30
REMARK                            x       y       z     vdW  Elec       q    Type
REMARK                         _______ _______ _______ _____ _____    ______ ____
ROOT
ATOM      1  C   UNL     1     -50.334   0.191 -21.091  0.00  0.00    +0.000 A 
ATOM      2  C   UNL     1     -49.380   0.871 -20.320  0.00  0.00    +0.000 A 
ATOM      3  C   UNL     1     -48.019   0.606 -20.491  0.00  0.00    +0.000 A 
ATOM      4  C   UNL     1     -47.604  -0.331 -21.440  0.00  0.00    +0.000 A 
ATOM      5  C   UNL     1     -48.547  -1.007 -22.226  0.00  0.00    +0.000 A 
ATOM      6  C   UNL     1     -49.911  -0.736 -22.049  0.00  0.00    +0.000 A 
ENDROOT
BRANCH   5   7
ATOM      7  C   UNL     1     -48.109  -1.992 -23.229  0.00  0.00    +0.000 A 
ATOM      8  N   UNL     1     -48.072  -1.719 -24.562  0.00  0.00    +0.000 NA
ATOM      9  C   UNL     1     -47.626  -2.870 -25.083  0.00  0.00    +0.000 A 
ATOM     10  C   UNL     1     -47.393  -3.163 -26.424  0.00  0.00    +0.000 A 
ATOM     11  C   UNL     1     -46.921  -4.453 -26.732  0.00  0.00    +0.000 A 
ATOM     12  C   UNL     1     -46.697  -5.399 -25.706  0.00  0.00    +0.000 A 
ATOM     13  C   UNL     1     -46.944  -5.066 -24.361  0.00  0.00    +0.000 A 
ATOM     14  C   UNL     1     -47.410  -3.782 -24.095  0.00  0.00    +0.000 A 
ATOM     15  N   UNL     1     -47.710  -3.251 -22.901  0.00  0.00    +0.000 N 
ATOM     16  H   UNL     1     -47.655  -3.667 -22.011  0.00  0.00    +0.000 HD
ENDBRANCH   5   7
BRANCH   1  19
ATOM     17  C   UNL     1     -52.328   1.370 -20.019  0.00  0.00    +0.000 C 
ATOM     18  O   UNL     1     -53.345   2.022 -20.370  0.00  0.00    +0.000 OA
ATOM     19  N   UNL     1     -51.736   0.458 -20.955  0.00  0.00    +0.000 N 
ATOM     20  H   UNL     1     -52.346  -0.026 -21.556  0.00  0.00    +0.000 HD
BRANCH  17  25
ATOM     21  C   UNL     1     -50.875   1.205 -16.661  0.00  0.00    +0.000 A 
ATOM     22  C   UNL     1     -51.383   2.495 -16.764  0.00  0.00    +0.000 A 
ATOM     23  C   UNL     1     -51.347   3.550 -15.713  0.00  0.00    +0.000 C 
ATOM     24  N   UNL     1     -51.951   2.703 -17.968  0.00  0.00    +0.000 N 
ATOM     25  C   UNL     1     -51.798   1.553 -18.654  0.00  0.00    +0.000 A 
ATOM     26  C   UNL     1     -51.151   0.603 -17.879  0.00  0.00    +0.000 A 
ATOM     27  C   UNL     1     -50.907  -0.825 -18.241  0.00  0.00    +0.000 C 
ATOM     28  H   UNL     1     -52.388   3.527 -18.283  0.00  0.00    +0.000 HD
BRANCH  21  30
ATOM     29  C   UNL     1     -50.926   0.309 -14.226  0.00  0.00    +0.000 C 
ATOM     30  C   UNL     1     -50.201   0.578 -15.499  0.00  0.00    +0.000 C 
ATOM     31  O   UNL     1     -48.985   0.260 -15.570  0.00  0.00    +0.000 OA
ENDBRANCH  21  30
ENDBRANCH  17  25
ENDBRANCH   1  19
TORSDOF 4
