REMARK  Name = ZINC000100261004
REMARK  3 active torsions:
REMARK  status: ('A' for Active; 'I' for Inactive)
REMARK    1  A    between atoms: C_1  and  C_13
REMARK    2  A    between atoms: C_7  and  C_23
REMARK    3  A    between atoms: C_14  and  O_15
REMARK                            x       y       z     vdW  Elec       q    Type
REMARK                         _______ _______ _______ _____ _____    ______ ____
ROOT
ATOM      1  C   UNL     1     -50.533   0.068 -19.238  0.00  0.00    +0.000 C 
ATOM      2  N   UNL     1     -50.743   0.562 -18.055  0.00  0.00    +0.000 NA
ATOM      3  N   UNL     1     -51.758   1.528 -18.080  0.00  0.00    +0.000 N 
ATOM      4  C   UNL     1     -52.174   1.633 -19.429  0.00  0.00    +0.000 C 
ATOM      5  O   UNL     1     -53.072   2.417 -19.835  0.00  0.00    +0.000 OA
ATOM      6  C   UNL     1     -51.436   0.682 -20.232  0.00  0.00    +0.000 C 
ATOM      7  C   UNL     1     -51.644   0.435 -21.531  0.00  0.00    +0.000 C 
ATOM      8  H   UNL     1     -52.112   2.034 -17.313  0.00  0.00    +0.000 HD
ENDROOT
BRANCH   1  13
ATOM      9  C   UNL     1     -46.055  -0.712 -21.197  0.00  0.00    +0.000 C 
ATOM     10  N   UNL     1     -47.211  -1.221 -20.458  0.00  0.00    +0.000 N 
ATOM     11  C   UNL     1     -48.252  -0.372 -20.193  0.00  0.00    +0.000 A 
ATOM     12  O   UNL     1     -48.191   0.835 -20.561  0.00  0.00    +0.000 OA
ATOM     13  C   UNL     1     -49.393  -0.833 -19.505  0.00  0.00    +0.000 A 
ATOM     14  C   UNL     1     -49.430  -2.159 -19.053  0.00  0.00    +0.000 A 
ATOM     15  C   UNL     1     -48.357  -3.015 -19.321  0.00  0.00    +0.000 A 
ATOM     16  C   UNL     1     -48.385  -4.349 -18.891  0.00  0.00    +0.000 A 
ATOM     17  C   UNL     1     -47.315  -5.202 -19.169  0.00  0.00    +0.000 A 
ATOM     18  C   UNL     1     -46.211  -4.730 -19.879  0.00  0.00    +0.000 A 
ATOM     19  C   UNL     1     -46.173  -3.403 -20.312  0.00  0.00    +0.000 A 
ATOM     20  C   UNL     1     -47.241  -2.527 -20.041  0.00  0.00    +0.000 A 
BRANCH  14  21
ATOM     21  O   UNL     1     -50.540  -2.630 -18.354  0.00  0.00    +0.000 OA
ATOM     22  H   UNL     1     -51.258  -2.055 -18.174  0.00  0.00    +0.000 HD
ENDBRANCH  14  21
ENDBRANCH   1  13
BRANCH   7  23
ATOM     23  C   UNL     1     -51.062  -0.668 -22.311  0.00  0.00    +0.000 A 
ATOM     24  C   UNL     1     -51.159  -2.034 -22.055  0.00  0.00    +0.000 A 
ATOM     25  N   UNL     1     -50.577  -2.746 -23.052  0.00  0.00    +0.000 N 
ATOM     26  C   UNL     1     -50.141  -1.829 -23.933  0.00  0.00    +0.000 A 
ATOM     27  C   UNL     1     -49.484  -2.077 -25.137  0.00  0.00    +0.000 A 
ATOM     28  C   UNL     1     -49.125  -0.969 -25.926  0.00  0.00    +0.000 A 
ATOM     29  C   UNL     1     -49.429   0.343 -25.502  0.00  0.00    +0.000 A 
ATOM     30  C   UNL     1     -50.094   0.563 -24.283  0.00  0.00    +0.000 A 
ATOM     31  C   UNL     1     -50.433  -0.556 -23.525  0.00  0.00    +0.000 A 
ATOM     32  H   UNL     1     -50.491  -3.725 -23.116  0.00  0.00    +0.000 HD
ENDBRANCH   7  23
TORSDOF 3
