REMARK  Name = ZINC000012772569 CSC027018696 MCULE-2308435649 MolPort-005-665-378
REMARK  4 active torsions:
REMARK  status: ('A' for Active; 'I' for Inactive)
REMARK    1  A    between atoms: C_2  and  O_23
REMARK    2  A    between atoms: C_3  and  N_28
REMARK    3  A    between atoms: C_4  and  C_5
REMARK    4  A    between atoms: C_20  and  N_31
REMARK                            x       y       z     vdW  Elec       q    Type
REMARK                         _______ _______ _______ _____ _____    ______ ____
ROOT
ATOM      1  C   UNL     1     -50.971   1.222 -20.355  0.00  0.00    +0.000 A 
ATOM      2  C   UNL     1     -51.063   0.431 -21.509  0.00  0.00    +0.000 A 
ATOM      3  C   UNL     1     -49.913  -0.097 -22.100  0.00  0.00    +0.000 A 
ATOM      4  C   UNL     1     -48.649   0.172 -21.544  0.00  0.00    +0.000 A 
ATOM      5  C   UNL     1     -47.518  -0.373 -22.167  0.00  0.00    +0.000 A 
ATOM      6  C   UNL     1     -48.910  -1.397 -23.802  0.00  0.00    +0.000 A 
ATOM      7  C   UNL     1     -49.094  -2.232 -25.035  0.00  0.00    +0.000 C 
ATOM      8  C   UNL     1     -48.999  -1.383 -26.297  0.00  0.00    +0.000 C 
ATOM      9  C   UNL     1     -47.554  -1.179 -26.734  0.00  0.00    +0.000 C 
ATOM     10  C   UNL     1     -46.889  -0.094 -25.901  0.00  0.00    +0.000 C 
ATOM     11  C   UNL     1     -45.870  -0.675 -24.922  0.00  0.00    +0.000 C 
ATOM     12  C   UNL     1     -46.479  -1.692 -23.956  0.00  0.00    +0.000 C 
ATOM     13  C   UNL     1     -48.552   0.974 -20.400  0.00  0.00    +0.000 A 
ATOM     14  C   UNL     1     -49.706   1.498 -19.813  0.00  0.00    +0.000 A 
ATOM     15  O   UNL     1     -46.368  -0.148 -21.693  0.00  0.00    +0.000 OA
ATOM     16  N   UNL     1     -47.663  -1.147 -23.287  0.00  0.00    +0.000 N 
ATOM     17  N   UNL     1     -50.012  -0.868 -23.209  0.00  0.00    +0.000 NA
ENDROOT
BRANCH   1  18
ATOM     18  C   UNL     1     -52.193   1.790 -19.750  0.00  0.00    +0.000 C 
ATOM     19  O   UNL     1     -53.221   1.942 -20.463  0.00  0.00    +0.000 OA
ATOM     20  N   UNL     1     -52.235   2.229 -18.384  0.00  0.00    +0.000 NA
BRANCH  20  22
ATOM     21  C   UNL     1     -51.443   2.280 -16.064  0.00  0.00    +0.000 A 
ATOM     22  C   UNL     1     -51.593   1.585 -17.274  0.00  0.00    +0.000 A 
ATOM     23  C   UNL     1     -51.166   0.251 -17.364  0.00  0.00    +0.000 A 
ATOM     24  C   UNL     1     -50.565  -0.387 -16.273  0.00  0.00    +0.000 A 
ATOM     25  C   UNL     1     -50.405   0.318 -15.072  0.00  0.00    +0.000 A 
ATOM     26  C   UNL     1     -50.843   1.640 -14.968  0.00  0.00    +0.000 A 
BRANCH  24  29
ATOM     27  O   UNL     1     -50.267  -2.425 -17.575  0.00  0.00    +0.000 OA
ATOM     28  O   UNL     1     -49.587  -2.323 -15.418  0.00  0.00    +0.000 OA
ATOM     29  N   UNL     1     -50.119  -1.745 -16.388  0.00  0.00    +0.000 N 
ENDBRANCH  24  29
BRANCH  21  31
ATOM     30  C   UNL     1     -51.776   4.374 -14.784  0.00  0.00    +0.000 C 
ATOM     31  O   UNL     1     -51.893   3.602 -15.972  0.00  0.00    +0.000 OA
ENDBRANCH  21  31
ENDBRANCH  20  22
ENDBRANCH   1  18
TORSDOF 4
