REMARK  Name = ZINC000031811413
REMARK  3 active torsions:
REMARK  status: ('A' for Active; 'I' for Inactive)
REMARK    1  A    between atoms: C_1  and  C_27
REMARK    2  A    between atoms: C_24  and  O_33
REMARK    3  A    between atoms: C_29  and  O_30
REMARK                            x       y       z     vdW  Elec       q    Type
REMARK                         _______ _______ _______ _____ _____    ______ ____
ROOT
ATOM      1  C   UNL     1     -48.527  -3.702 -21.593  0.00  0.00    +0.000 C 
ATOM      2  S   UNL     1     -49.320  -4.878 -20.462  0.00  0.00    +0.000 S 
ATOM      3  C   UNL     1     -48.711  -3.914 -19.068  0.00  0.00    +0.000 C 
ATOM      4  C   UNL     1     -49.775  -2.980 -18.630  0.00  0.00    +0.000 C 
ATOM      5  O   UNL     1     -50.197  -3.063 -17.447  0.00  0.00    +0.000 OA
ATOM      6  N   UNL     1     -50.330  -1.984 -19.494  0.00  0.00    +0.000 N 
ATOM      7  C   UNL     1     -50.072  -1.696 -20.880  0.00  0.00    +0.000 A 
ATOM      8  C   UNL     1     -49.366  -2.456 -21.820  0.00  0.00    +0.000 A 
ATOM      9  C   UNL     1     -49.508  -1.715 -22.998  0.00  0.00    +0.000 A 
ATOM     10  C   UNL     1     -48.890  -1.983 -24.326  0.00  0.00    +0.000 C 
ATOM     11  N   UNL     1     -50.272  -0.630 -22.778  0.00  0.00    +0.000 NA
ATOM     12  N   UNL     1     -50.604  -0.620 -21.500  0.00  0.00    +0.000 N 
ATOM     13  H   UNL     1     -50.999  -1.399 -19.070  0.00  0.00    +0.000 HD
ATOM     14  C   UNL     1     -51.440   0.397 -20.928  0.00  0.00    +0.000 A 
ATOM     15  N   UNL     1     -52.409   0.992 -21.687  0.00  0.00    +0.000 NA
ATOM     16  C   UNL     1     -53.205   1.988 -21.181  0.00  0.00    +0.000 A 
ATOM     17  N   UNL     1     -53.037   2.425 -19.897  0.00  0.00    +0.000 NA
ATOM     18  C   UNL     1     -52.068   1.846 -19.148  0.00  0.00    +0.000 A 
ATOM     19  N   UNL     1     -51.719   2.178 -17.899  0.00  0.00    +0.000 N 
ATOM     20  C   UNL     1     -50.670   1.345 -17.657  0.00  0.00    +0.000 A 
ATOM     21  N   UNL     1     -50.362   0.527 -18.701  0.00  0.00    +0.000 NA
ATOM     22  C   UNL     1     -51.274   0.864 -19.624  0.00  0.00    +0.000 A 
ATOM     23  H   UNL     1     -52.120   2.853 -17.306  0.00  0.00    +0.000 HD
ENDROOT
BRANCH   1  27
ATOM     24  C   UNL     1     -47.272  -5.728 -25.184  0.00  0.00    +0.000 A 
ATOM     25  C   UNL     1     -46.735  -4.477 -24.839  0.00  0.00    +0.000 A 
ATOM     26  C   UNL     1     -47.147  -3.828 -23.673  0.00  0.00    +0.000 A 
ATOM     27  C   UNL     1     -48.101  -4.419 -22.839  0.00  0.00    +0.000 A 
ATOM     28  C   UNL     1     -48.638  -5.670 -23.179  0.00  0.00    +0.000 A 
ATOM     29  C   UNL     1     -48.227  -6.321 -24.345  0.00  0.00    +0.000 A 
BRANCH  29  30
ATOM     30  O   UNL     1     -48.770  -7.558 -24.667  0.00  0.00    +0.000 OA
ATOM     31  H   UNL     1     -49.408  -7.951 -24.103  0.00  0.00    +0.000 HD
ENDBRANCH  29  30
BRANCH  24  33
ATOM     32  C   UNL     1     -46.172  -5.749 -27.402  0.00  0.00    +0.000 C 
ATOM     33  O   UNL     1     -46.874  -6.394 -26.348  0.00  0.00    +0.000 OA
ENDBRANCH  24  33
ENDBRANCH   1  27
TORSDOF 3
