REMARK  Name = ZINC000036054391 ZINC36054391 PubChem-93152296
REMARK  8 active torsions:
REMARK  status: ('A' for Active; 'I' for Inactive)
REMARK    1  A    between atoms: C_2  and  C_4
REMARK    2  A    between atoms: C_4  and  C_5
REMARK    3  A    between atoms: C_7  and  C_18
REMARK    4  A    between atoms: C_8  and  C_10
REMARK    5  A    between atoms: C_11  and  C_12
REMARK    6  A    between atoms: C_11  and  N_31
REMARK    7  A    between atoms: C_22  and  O_29
REMARK    8  A    between atoms: C_23  and  O_28
REMARK                            x       y       z     vdW  Elec       q    Type
REMARK                         _______ _______ _______ _____ _____    ______ ____
ROOT
ATOM      1  C   UNL     1     -51.094  -2.324 -17.689  0.00  0.00    +0.000 C 
ATOM      2  C   UNL     1     -49.880  -0.702 -19.203  0.00  0.00    +0.000 C 
ATOM      3  C   UNL     1     -50.335   0.446 -20.088  0.00  0.00    +0.000 C 
ATOM      4  C   UNL     1     -51.859   0.375 -20.185  0.00  0.00    +0.000 C 
ATOM      5  C   UNL     1     -52.308  -0.726 -19.238  0.00  0.00    +0.000 C 
ATOM      6  O   UNL     1     -50.003  -2.790 -17.264  0.00  0.00    +0.000 OA
ATOM      7  N   UNL     1     -51.095  -1.310 -18.701  0.00  0.00    +0.000 N 
ENDROOT
BRANCH   3   8
ATOM      8  C   UNL     1     -49.679   0.416 -21.439  0.00  0.00    +0.000 A 
ATOM      9  C   UNL     1     -48.904   1.521 -21.796  0.00  0.00    +0.000 A 
ATOM     10  C   UNL     1     -48.266   1.570 -23.032  0.00  0.00    +0.000 A 
ATOM     11  C   UNL     1     -48.400   0.509 -23.924  0.00  0.00    +0.000 A 
ATOM     12  C   UNL     1     -49.172  -0.616 -23.596  0.00  0.00    +0.000 A 
ATOM     13  C   UNL     1     -49.825  -0.670 -22.336  0.00  0.00    +0.000 A 
BRANCH  13  15
ATOM     14  C   UNL     1     -50.864  -2.926 -22.702  0.00  0.00    +0.000 C 
ATOM     15  O   UNL     1     -50.616  -1.760 -21.930  0.00  0.00    +0.000 OA
ENDBRANCH  13  15
BRANCH  12  17
ATOM     16  C   UNL     1     -48.663  -1.670 -25.783  0.00  0.00    +0.000 C 
ATOM     17  O   UNL     1     -49.293  -1.671 -24.508  0.00  0.00    +0.000 OA
ENDBRANCH  12  17
ENDBRANCH   3   8
BRANCH   4  18
ATOM     18  C   UNL     1     -52.467   1.679 -19.787  0.00  0.00    +0.000 C 
ATOM     19  O   UNL     1     -53.172   2.311 -20.617  0.00  0.00    +0.000 OA
ATOM     20  N   UNL     1     -52.255   2.197 -18.472  0.00  0.00    +0.000 NA
BRANCH  20  21
ATOM     21  C   UNL     1     -52.845   3.447 -18.026  0.00  0.00    +0.000 C 
BRANCH  21  22
ATOM     22  C   UNL     1     -52.498   3.679 -16.598  0.00  0.00    +0.000 A 
ATOM     23  C   UNL     1     -53.293   3.129 -15.586  0.00  0.00    +0.000 A 
ATOM     24  C   UNL     1     -52.949   3.320 -14.245  0.00  0.00    +0.000 A 
ATOM     25  C   UNL     1     -51.807   4.056 -13.914  0.00  0.00    +0.000 A 
ATOM     26  C   UNL     1     -51.007   4.598 -14.924  0.00  0.00    +0.000 A 
ATOM     27  C   UNL     1     -51.350   4.407 -16.266  0.00  0.00    +0.000 A 
ATOM     28  F   UNL     1     -51.474   4.241 -12.614  0.00  0.00    +0.000 F 
ENDBRANCH  21  22
ENDBRANCH  20  21
ENDBRANCH   4  18
BRANCH   1  29
ATOM     29  C   UNL     1     -52.388  -2.846 -17.133  0.00  0.00    +0.000 C 
BRANCH  29  31
ATOM     30  C   UNL     1     -52.697  -0.898 -15.553  0.00  0.00    +0.000 C 
ATOM     31  C   UNL     1     -52.651  -2.410 -15.689  0.00  0.00    +0.000 C 
ATOM     32  C   UNL     1     -51.643  -3.003 -14.721  0.00  0.00    +0.000 C 
ENDBRANCH  29  31
ENDBRANCH   1  29
TORSDOF 8
