REMARK  Name = ZINC000031810529
REMARK  1 active torsions:
REMARK  status: ('A' for Active; 'I' for Inactive)
REMARK    1  A    between atoms: C_7  and  C_24
REMARK                            x       y       z     vdW  Elec       q    Type
REMARK                         _______ _______ _______ _____ _____    ______ ____
ROOT
ATOM      1  C   UNL     1     -47.352  -1.180 -24.106  0.00  0.00    +0.000 C 
ATOM      2  C   UNL     1     -48.344  -1.028 -23.005  0.00  0.00    +0.000 A 
ATOM      3  N   UNL     1     -49.321  -0.104 -23.011  0.00  0.00    +0.000 NA
ATOM      4  N   UNL     1     -50.018  -0.253 -21.896  0.00  0.00    +0.000 N 
ATOM      5  C   UNL     1     -49.522  -1.289 -21.180  0.00  0.00    +0.000 A 
ATOM      6  C   UNL     1     -48.420  -1.804 -21.861  0.00  0.00    +0.000 A 
ATOM      7  C   UNL     1     -47.519  -2.971 -21.564  0.00  0.00    +0.000 C 
ATOM      8  S   UNL     1     -47.241  -3.292 -19.794  0.00  0.00    +0.000 S 
ATOM      9  C   UNL     1     -48.908  -3.955 -19.563  0.00  0.00    +0.000 C 
ATOM     10  C   UNL     1     -49.828  -2.873 -19.135  0.00  0.00    +0.000 C 
ATOM     11  O   UNL     1     -50.401  -2.983 -18.020  0.00  0.00    +0.000 OA
ATOM     12  N   UNL     1     -50.120  -1.736 -19.951  0.00  0.00    +0.000 N 
ATOM     13  H   UNL     1     -50.849  -1.165 -19.617  0.00  0.00    +0.000 HD
ATOM     14  C   UNL     1     -51.163   0.554 -21.588  0.00  0.00    +0.000 A 
ATOM     15  N   UNL     1     -52.041   0.903 -22.577  0.00  0.00    +0.000 NA
ATOM     16  C   UNL     1     -53.129   1.698 -22.323  0.00  0.00    +0.000 A 
ATOM     17  N   UNL     1     -53.357   2.178 -21.064  0.00  0.00    +0.000 NA
ATOM     18  C   UNL     1     -52.482   1.846 -20.086  0.00  0.00    +0.000 A 
ATOM     19  N   UNL     1     -52.508   2.265 -18.815  0.00  0.00    +0.000 N 
ATOM     20  C   UNL     1     -51.386   1.696 -18.296  0.00  0.00    +0.000 A 
ATOM     21  N   UNL     1     -50.677   0.956 -19.192  0.00  0.00    +0.000 NA
ATOM     22  C   UNL     1     -51.405   1.064 -20.312  0.00  0.00    +0.000 A 
ATOM     23  H   UNL     1     -53.171   2.839 -18.369  0.00  0.00    +0.000 HD
ENDROOT
BRANCH   7  24
ATOM     24  C   UNL     1     -47.810  -4.209 -22.368  0.00  0.00    +0.000 A 
ATOM     25  C   UNL     1     -46.853  -5.229 -22.415  0.00  0.00    +0.000 A 
ATOM     26  C   UNL     1     -47.101  -6.395 -23.145  0.00  0.00    +0.000 A 
ATOM     27  C   UNL     1     -48.309  -6.549 -23.830  0.00  0.00    +0.000 A 
ATOM     28  F   UNL     1     -48.543  -7.683 -24.535  0.00  0.00    +0.000 F 
ATOM     29  C   UNL     1     -49.273  -5.535 -23.784  0.00  0.00    +0.000 A 
ATOM     30  F   UNL     1     -50.448  -5.678 -24.444  0.00  0.00    +0.000 F 
ATOM     31  C   UNL     1     -49.025  -4.370 -23.054  0.00  0.00    +0.000 A 
ENDBRANCH   7  24
TORSDOF 1
