REMARK  Name = ZINC000016045159 CSC026732198 MCULE-2825595349 MolPort-005-315-093
REMARK  5 active torsions:
REMARK  status: ('A' for Active; 'I' for Inactive)
REMARK    1  A    between atoms: C_1  and  C_14
REMARK    2  A    between atoms: C_6  and  S_26
REMARK    3  A    between atoms: N_13  and  C_19
REMARK    4  A    between atoms: C_17  and  C_24
REMARK    5  A    between atoms: S_26  and  N_29
REMARK                            x       y       z     vdW  Elec       q    Type
REMARK                         _______ _______ _______ _____ _____    ______ ____
ROOT
ATOM      1  C   UNL     1     -51.120  -0.009 -19.436  0.00  0.00    +0.000 A 
ATOM      2  C   UNL     1     -51.014   0.735 -18.239  0.00  0.00    +0.000 A 
ATOM      3  C   UNL     1     -51.773   1.921 -18.099  0.00  0.00    +0.000 A 
ATOM      4  C   UNL     1     -51.681   2.679 -16.929  0.00  0.00    +0.000 A 
ATOM      5  C   UNL     1     -50.834   2.273 -15.895  0.00  0.00    +0.000 A 
ATOM      6  C   UNL     1     -50.071   1.110 -16.028  0.00  0.00    +0.000 A 
ATOM      7  C   UNL     1     -50.162   0.345 -17.195  0.00  0.00    +0.000 A 
ATOM      8  N   UNL     1     -52.593   2.330 -19.103  0.00  0.00    +0.000 N 
ATOM      9  C   UNL     1     -52.710   1.625 -20.258  0.00  0.00    +0.000 A 
ATOM     10  O   UNL     1     -53.479   2.033 -21.167  0.00  0.00    +0.000 OA
ATOM     11  C   UNL     1     -51.982   0.450 -20.440  0.00  0.00    +0.000 A 
ATOM     12  H   UNL     1     -53.114   3.157 -18.990  0.00  0.00    +0.000 HD
ENDROOT
BRANCH   1  14
ATOM     13  N   UNL     1     -50.341  -1.913 -20.942  0.00  0.00    +0.000 N 
ATOM     14  C   UNL     1     -50.382  -1.276 -19.657  0.00  0.00    +0.000 C 
ATOM     15  O   UNL     1     -49.831  -1.853 -18.683  0.00  0.00    +0.000 OA
ATOM     16  H   UNL     1     -50.297  -2.897 -20.951  0.00  0.00    +0.000 HD
BRANCH  13  19
ATOM     17  C   UNL     1     -50.861  -1.337 -24.596  0.00  0.00    +0.000 A 
ATOM     18  C   UNL     1     -50.856  -1.937 -23.327  0.00  0.00    +0.000 A 
ATOM     19  C   UNL     1     -50.359  -1.252 -22.214  0.00  0.00    +0.000 A 
ATOM     20  C   UNL     1     -49.835   0.038 -22.377  0.00  0.00    +0.000 A 
ATOM     21  C   UNL     1     -49.835   0.645 -23.635  0.00  0.00    +0.000 A 
ATOM     22  C   UNL     1     -50.348  -0.040 -24.740  0.00  0.00    +0.000 A 
BRANCH  17  24
ATOM     23  C   UNL     1     -51.407  -1.455 -27.119  0.00  0.00    +0.000 C 
ATOM     24  C   UNL     1     -51.398  -2.069 -25.759  0.00  0.00    +0.000 C 
ATOM     25  O   UNL     1     -51.860  -3.233 -25.617  0.00  0.00    +0.000 OA
ENDBRANCH  17  24
ENDBRANCH  13  19
ENDBRANCH   1  14
BRANCH   6  26
ATOM     26  S   UNL     1     -49.020   0.596 -14.718  0.00  0.00    +0.000 S 
ATOM     27  O   UNL     1     -47.831   1.514 -14.656  0.00  0.00    +0.000 OA
ATOM     28  O   UNL     1     -48.536  -0.804 -14.980  0.00  0.00    +0.000 OA
BRANCH  26  29
ATOM     29  N   UNL     1     -49.886   0.656 -13.215  0.00  0.00    +0.000 NA
ATOM     30  C   UNL     1     -48.941   0.335 -12.143  0.00  0.00    +0.000 C 
ATOM     31  C   UNL     1     -49.700   0.177 -10.823  0.00  0.00    +0.000 C 
ATOM     32  O   UNL     1     -50.626  -0.877 -10.930  0.00  0.00    +0.000 OA
ATOM     33  C   UNL     1     -51.587  -0.489 -11.882  0.00  0.00    +0.000 C 
ATOM     34  C   UNL     1     -50.931  -0.369 -13.259  0.00  0.00    +0.000 C 
ENDBRANCH  26  29
ENDBRANCH   6  26
TORSDOF 5
