REMARK  Name = ZINC000096182881 ZINC96182881 PubChem-97458173
REMARK  3 active torsions:
REMARK  status: ('A' for Active; 'I' for Inactive)
REMARK    1  A    between atoms: C_6  and  N_21
REMARK    2  A    between atoms: C_8  and  C_9
REMARK    3  A    between atoms: C_10  and  C_14
REMARK                            x       y       z     vdW  Elec       q    Type
REMARK                         _______ _______ _______ _____ _____    ______ ____
ROOT
ATOM      1  C   UNL     1     -51.802   0.326 -20.570  0.00  0.00    +0.000 C 
ATOM      2  C   UNL     1     -50.265   0.304 -20.455  0.00  0.00    +0.000 C 
ATOM      3  C   UNL     1     -50.723  -1.351 -18.616  0.00  0.00    +0.000 C 
ATOM      4  C   UNL     1     -52.182  -1.256 -18.920  0.00  0.00    +0.000 C 
ATOM      5  C   UNL     1     -48.418  -0.408 -18.895  0.00  0.00    +0.000 C 
ATOM      6  N   UNL     1     -49.809  -0.499 -19.316  0.00  0.00    +0.000 N 
ATOM      7  O   UNL     1     -50.320  -2.127 -17.709  0.00  0.00    +0.000 OA
ATOM      8  O   UNL     1     -52.398  -0.926 -20.276  0.00  0.00    +0.000 OA
ENDROOT
BRANCH   2   9
ATOM      9  C   UNL     1     -49.649  -0.186 -21.731  0.00  0.00    +0.000 A 
ATOM     10  C   UNL     1     -48.839   0.679 -22.474  0.00  0.00    +0.000 A 
ATOM     11  C   UNL     1     -48.248   0.241 -23.663  0.00  0.00    +0.000 A 
ATOM     12  C   UNL     1     -48.465  -1.065 -24.113  0.00  0.00    +0.000 A 
ATOM     13  C   UNL     1     -49.272  -1.934 -23.373  0.00  0.00    +0.000 A 
ATOM     14  C   UNL     1     -49.863  -1.497 -22.184  0.00  0.00    +0.000 A 
ATOM     15  F   UNL     1     -47.893  -1.488 -25.265  0.00  0.00    +0.000 F 
ENDBRANCH   2   9
BRANCH   1  16
ATOM     16  C   UNL     1     -52.444   1.480 -19.854  0.00  0.00    +0.000 C 
ATOM     17  N   UNL     1     -51.986   1.858 -18.547  0.00  0.00    +0.000 NA
ATOM     18  O   UNL     1     -53.403   2.081 -20.406  0.00  0.00    +0.000 OA
BRANCH  17  24
ATOM     19  C   UNL     1     -55.136   5.641 -17.798  0.00  0.00    +0.000 C 
ATOM     20  C   UNL     1     -54.022   4.772 -17.337  0.00  0.00    +0.000 A 
ATOM     21  C   UNL     1     -53.446   4.981 -16.081  0.00  0.00    +0.000 A 
ATOM     22  C   UNL     1     -52.398   4.164 -15.649  0.00  0.00    +0.000 A 
ATOM     23  C   UNL     1     -51.927   3.137 -16.473  0.00  0.00    +0.000 A 
ATOM     24  C   UNL     1     -52.498   2.921 -17.732  0.00  0.00    +0.000 A 
ATOM     25  C   UNL     1     -53.550   3.745 -18.160  0.00  0.00    +0.000 A 
ATOM     26  C   UNL     1     -51.785   4.386 -14.314  0.00  0.00    +0.000 C 
ENDBRANCH  17  24
ENDBRANCH   1  16
TORSDOF 3
