REMARK  Name = ZINC000120428911 PubChem-124568485
REMARK  3 active torsions:
REMARK  status: ('A' for Active; 'I' for Inactive)
REMARK    1  A    between atoms: C_6  and  N_20
REMARK    2  A    between atoms: C_7  and  C_8
REMARK    3  A    between atoms: C_13  and  C_14
REMARK                            x       y       z     vdW  Elec       q    Type
REMARK                         _______ _______ _______ _____ _____    ______ ____
ROOT
ATOM      1  C   UNL     1     -51.981   0.245 -20.639  0.00  0.00    +0.000 C 
ATOM      2  C   UNL     1     -52.660  -1.037 -20.152  0.00  0.00    +0.000 C 
ATOM      3  C   UNL     1     -52.239  -1.402 -18.733  0.00  0.00    +0.000 C 
ATOM      4  C   UNL     1     -50.752  -1.358 -18.571  0.00  0.00    +0.000 C 
ATOM      5  C   UNL     1     -48.569  -0.207 -18.985  0.00  0.00    +0.000 C 
ATOM      6  C   UNL     1     -50.451   0.137 -20.604  0.00  0.00    +0.000 C 
ATOM      7  N   UNL     1     -49.952  -0.460 -19.360  0.00  0.00    +0.000 N 
ATOM      8  O   UNL     1     -50.215  -2.082 -17.690  0.00  0.00    +0.000 OA
ENDROOT
BRANCH   6   9
ATOM      9  C   UNL     1     -49.932  -0.608 -21.795  0.00  0.00    +0.000 A 
ATOM     10  C   UNL     1     -50.148  -1.939 -22.109  0.00  0.00    +0.000 A 
ATOM     11  C   UNL     1     -48.069  -0.985 -24.835  0.00  0.00    +0.000 C 
ATOM     12  C   UNL     1     -49.121  -0.083 -22.779  0.00  0.00    +0.000 A 
ATOM     13  N   UNL     1     -49.487  -2.199 -23.253  0.00  0.00    +0.000 NA
ATOM     14  N   UNL     1     -48.883  -1.087 -23.638  0.00  0.00    +0.000 N 
ENDBRANCH   6   9
BRANCH   1  15
ATOM     15  C   UNL     1     -52.482   1.464 -19.927  0.00  0.00    +0.000 C 
ATOM     16  N   UNL     1     -52.042   1.750 -18.591  0.00  0.00    +0.000 NA
ATOM     17  O   UNL     1     -53.307   2.214 -20.514  0.00  0.00    +0.000 OA
BRANCH  16  23
ATOM     18  C   UNL     1     -54.628   5.950 -17.913  0.00  0.00    +0.000 C 
ATOM     19  C   UNL     1     -53.680   4.918 -17.418  0.00  0.00    +0.000 A 
ATOM     20  C   UNL     1     -53.144   5.021 -16.131  0.00  0.00    +0.000 A 
ATOM     21  C   UNL     1     -52.252   4.050 -15.668  0.00  0.00    +0.000 A 
ATOM     22  C   UNL     1     -51.898   2.977 -16.490  0.00  0.00    +0.000 A 
ATOM     23  C   UNL     1     -52.431   2.865 -17.779  0.00  0.00    +0.000 A 
ATOM     24  C   UNL     1     -53.325   3.844 -18.239  0.00  0.00    +0.000 A 
ATOM     25  F   UNL     1     -51.732   4.149 -14.421  0.00  0.00    +0.000 F 
ENDBRANCH  16  23
ENDBRANCH   1  15
TORSDOF 3
