REMARK  Name = ZINC000014607688
REMARK  6 active torsions:
REMARK  status: ('A' for Active; 'I' for Inactive)
REMARK    1  A    between atoms: C_1  and  C_32
REMARK    2  A    between atoms: C_7  and  C_17
REMARK    3  A    between atoms: C_10  and  C_11
REMARK    4  A    between atoms: N_19  and  C_21
REMARK    5  A    between atoms: C_23  and  O_27
REMARK    6  A    between atoms: C_26  and  O_29
REMARK                            x       y       z     vdW  Elec       q    Type
REMARK                         _______ _______ _______ _____ _____    ______ ____
ROOT
ATOM      1  C   UNL     1     -48.204  -1.139 -23.429  0.00  0.00    +0.000 A 
ATOM      2  N   UNL     1     -49.310  -0.361 -23.521  0.00  0.00    +0.000 NA
ATOM      3  N   UNL     1     -49.772  -0.214 -22.291  0.00  0.00    +0.000 N 
ATOM      4  C   UNL     1     -49.000  -0.873 -21.425  0.00  0.00    +0.000 A 
ATOM      5  N   UNL     1     -49.284  -0.876 -20.103  0.00  0.00    +0.000 NA
ATOM      6  N   UNL     1     -50.354  -0.202 -19.669  0.00  0.00    +0.000 NA
ATOM      7  C   UNL     1     -51.177   0.486 -20.520  0.00  0.00    +0.000 A 
ATOM      8  C   UNL     1     -50.868   0.485 -21.902  0.00  0.00    +0.000 A 
ATOM      9  C   UNL     1     -51.719   1.175 -22.919  0.00  0.00    +0.000 C 
ATOM     10  C   UNL     1     -47.967  -1.501 -22.094  0.00  0.00    +0.000 A 
ENDROOT
BRANCH  10  11
ATOM     11  C   UNL     1     -46.912  -2.377 -21.527  0.00  0.00    +0.000 A 
ATOM     12  C   UNL     1     -45.926  -1.843 -20.683  0.00  0.00    +0.000 A 
ATOM     13  C   UNL     1     -44.937  -2.665 -20.136  0.00  0.00    +0.000 A 
ATOM     14  C   UNL     1     -44.924  -4.031 -20.426  0.00  0.00    +0.000 A 
ATOM     15  C   UNL     1     -45.902  -4.575 -21.262  0.00  0.00    +0.000 A 
ATOM     16  C   UNL     1     -46.891  -3.751 -21.808  0.00  0.00    +0.000 A 
ENDBRANCH  10  11
BRANCH   7  17
ATOM     17  C   UNL     1     -52.339   1.218 -19.962  0.00  0.00    +0.000 C 
ATOM     18  O   UNL     1     -53.422   1.251 -20.604  0.00  0.00    +0.000 OA
ATOM     19  N   UNL     1     -52.242   1.970 -18.744  0.00  0.00    +0.000 N 
ATOM     20  H   UNL     1     -52.818   2.765 -18.669  0.00  0.00    +0.000 HD
BRANCH  19  21
ATOM     21  C   UNL     1     -51.392   1.682 -17.623  0.00  0.00    +0.000 A 
ATOM     22  C   UNL     1     -50.617   0.512 -17.617  0.00  0.00    +0.000 A 
ATOM     23  C   UNL     1     -49.810   0.181 -16.521  0.00  0.00    +0.000 A 
ATOM     24  C   UNL     1     -49.797   1.018 -15.406  0.00  0.00    +0.000 A 
ATOM     25  C   UNL     1     -50.575   2.176 -15.389  0.00  0.00    +0.000 A 
ATOM     26  C   UNL     1     -51.376   2.525 -16.482  0.00  0.00    +0.000 A 
BRANCH  23  27
ATOM     27  O   UNL     1     -49.019  -0.971 -16.515  0.00  0.00    +0.000 OA
ATOM     28  C   UNL     1     -47.891  -1.121 -15.664  0.00  0.00    +0.000 C 
ENDBRANCH  23  27
BRANCH  26  29
ATOM     29  O   UNL     1     -52.120   3.710 -16.366  0.00  0.00    +0.000 OA
ATOM     30  C   UNL     1     -51.890   4.731 -15.406  0.00  0.00    +0.000 C 
ENDBRANCH  26  29
ENDBRANCH  19  21
ENDBRANCH   7  17
BRANCH   1  32
ATOM     31  C   UNL     1     -48.318  -1.806 -25.803  0.00  0.00    +0.000 C 
ATOM     32  C   UNL     1     -47.402  -1.528 -24.626  0.00  0.00    +0.000 C 
ENDBRANCH   1  32
TORSDOF 6
