REMARK  Name = ZINC000023126404 MCULE-3872663354
REMARK  6 active torsions:
REMARK  status: ('A' for Active; 'I' for Inactive)
REMARK    1  A    between atoms: C_4  and  S_25
REMARK    2  A    between atoms: C_10  and  C_16
REMARK    3  A    between atoms: N_18  and  C_20
REMARK    4  A    between atoms: S_25  and  C_26
REMARK    5  A    between atoms: C_26  and  C_27
REMARK    6  A    between atoms: N_29  and  C_31
REMARK                            x       y       z     vdW  Elec       q    Type
REMARK                         _______ _______ _______ _____ _____    ______ ____
ROOT
ATOM      1  C   UNL     1     -47.980  -1.443 -22.905  0.00  0.00    +0.000 A 
ATOM      2  N   UNL     1     -46.918  -2.238 -22.673  0.00  0.00    +0.000 NA
ATOM      3  N   UNL     1     -46.768  -2.275 -21.353  0.00  0.00    +0.000 NA
ATOM      4  C   UNL     1     -47.739  -1.508 -20.812  0.00  0.00    +0.000 A 
ATOM      5  N   UNL     1     -48.520  -0.972 -21.774  0.00  0.00    +0.000 N 
ATOM      6  C   UNL     1     -49.606  -0.154 -21.767  0.00  0.00    +0.000 A 
ATOM      7  C   UNL     1     -50.159   0.217 -23.014  0.00  0.00    +0.000 A 
ATOM      8  C   UNL     1     -51.277   1.061 -23.049  0.00  0.00    +0.000 A 
ATOM      9  C   UNL     1     -51.847   1.522 -21.859  0.00  0.00    +0.000 A 
ATOM     10  C   UNL     1     -51.312   1.145 -20.619  0.00  0.00    +0.000 A 
ATOM     11  C   UNL     1     -50.189   0.308 -20.581  0.00  0.00    +0.000 A 
ATOM     12  C   UNL     1     -49.568  -0.283 -24.199  0.00  0.00    +0.000 A 
ATOM     13  O   UNL     1     -50.046   0.038 -25.323  0.00  0.00    +0.000 OA
ATOM     14  N   UNL     1     -48.480  -1.117 -24.128  0.00  0.00    +0.000 N 
ATOM     15  C   UNL     1     -47.860  -1.644 -25.338  0.00  0.00    +0.000 C 
ENDROOT
BRANCH  10  16
ATOM     16  C   UNL     1     -51.931   1.611 -19.367  0.00  0.00    +0.000 C 
ATOM     17  O   UNL     1     -53.002   2.277 -19.402  0.00  0.00    +0.000 OA
ATOM     18  N   UNL     1     -51.328   1.293 -18.108  0.00  0.00    +0.000 N 
ATOM     19  H   UNL     1     -50.508   0.747 -18.100  0.00  0.00    +0.000 HD
BRANCH  18  20
ATOM     20  C   UNL     1     -51.880   1.746 -16.841  0.00  0.00    +0.000 C 
ATOM     21  C   UNL     1     -51.917   3.266 -16.802  0.00  0.00    +0.000 C 
ATOM     22  C   UNL     1     -50.935   3.694 -15.732  0.00  0.00    +0.000 C 
ATOM     23  C   UNL     1     -50.798   2.504 -14.815  0.00  0.00    +0.000 C 
ATOM     24  C   UNL     1     -50.979   1.298 -15.707  0.00  0.00    +0.000 C 
ENDBRANCH  18  20
ENDBRANCH  10  16
BRANCH   4  25
ATOM     25  S   UNL     1     -47.887  -1.212 -19.051  0.00  0.00    +0.000 S 
BRANCH  25  26
ATOM     26  C   UNL     1     -48.917  -2.694 -18.802  0.00  0.00    +0.000 C 
BRANCH  26  27
ATOM     27  C   UNL     1     -49.260  -2.924 -17.363  0.00  0.00    +0.000 C 
ATOM     28  O   UNL     1     -49.780  -4.023 -17.039  0.00  0.00    +0.000 OA
ATOM     29  N   UNL     1     -48.983  -1.922 -16.372  0.00  0.00    +0.000 N 
ATOM     30  H   UNL     1     -48.508  -1.117 -16.680  0.00  0.00    +0.000 HD
BRANCH  29  31
ATOM     31  C   UNL     1     -49.325  -1.972 -14.981  0.00  0.00    +0.000 A 
ATOM     32  C   UNL     1     -48.657  -1.121 -14.093  0.00  0.00    +0.000 A 
ATOM     33  C   UNL     1     -48.980  -1.123 -12.733  0.00  0.00    +0.000 A 
ATOM     34  C   UNL     1     -49.978  -1.975 -12.253  0.00  0.00    +0.000 A 
ATOM     35  C   UNL     1     -50.652  -2.827 -13.133  0.00  0.00    +0.000 A 
ATOM     36  C   UNL     1     -50.327  -2.825 -14.492  0.00  0.00    +0.000 A 
ATOM     37  F   UNL     1     -50.295  -1.974 -10.936  0.00  0.00    +0.000 F 
ENDBRANCH  29  31
ENDBRANCH  26  27
ENDBRANCH  25  26
ENDBRANCH   4  25
TORSDOF 6
