REMARK  Name = ZINC000065307388 ZINC65307388 ChemDiv-P103-1197 MolPort-010-961-951 PubChem-53200924
REMARK  7 active torsions:
REMARK  status: ('A' for Active; 'I' for Inactive)
REMARK    1  A    between atoms: C_2  and  C_3
REMARK    2  A    between atoms: C_4  and  C_5
REMARK    3  A    between atoms: C_6  and  S_25
REMARK    4  A    between atoms: C_7  and  C_8
REMARK    5  A    between atoms: C_7  and  S_25
REMARK    6  A    between atoms: C_9  and  C_10
REMARK    7  A    between atoms: C_9  and  N_20
REMARK                            x       y       z     vdW  Elec       q    Type
REMARK                         _______ _______ _______ _____ _____    ______ ____
ROOT
ATOM      1  C   UNL     1     -49.739  -2.356 -20.332  0.00  0.00    +0.000 A 
ATOM      2  C   UNL     1     -49.988  -1.714 -19.091  0.00  0.00    +0.000 A 
ATOM      3  C   UNL     1     -50.096  -3.822 -17.985  0.00  0.00    +0.000 A 
ATOM      4  C   UNL     1     -49.858  -4.494 -19.180  0.00  0.00    +0.000 A 
ATOM      5  C   UNL     1     -49.681  -3.756 -20.348  0.00  0.00    +0.000 A 
ATOM      6  N   UNL     1     -50.155  -2.466 -17.968  0.00  0.00    +0.000 NA
ENDROOT
BRANCH   1   8
ATOM      7  C   UNL     1     -49.212  -1.255 -23.647  0.00  0.00    +0.000 A 
ATOM      8  C   UNL     1     -49.539  -1.644 -21.619  0.00  0.00    +0.000 A 
ATOM      9  N   UNL     1     -49.341  -2.287 -22.793  0.00  0.00    +0.000 NA
ATOM     10  N   UNL     1     -49.529  -0.304 -21.770  0.00  0.00    +0.000 NA
ATOM     11  O   UNL     1     -49.326  -0.104 -23.035  0.00  0.00    +0.000 OA
BRANCH   7  13
ATOM     12  C   UNL     1     -47.645  -0.801 -25.490  0.00  0.00    +0.000 C 
ATOM     13  C   UNL     1     -48.978  -1.413 -25.108  0.00  0.00    +0.000 C 
ENDBRANCH   7  13
ENDBRANCH   1   8
BRANCH   2  14
ATOM     14  S   UNL     1     -50.094   0.068 -18.909  0.00  0.00    +0.000 S 
BRANCH  14  15
ATOM     15  C   UNL     1     -51.882   0.072 -19.236  0.00  0.00    +0.000 C 
BRANCH  15  16
ATOM     16  C   UNL     1     -52.389   1.470 -19.286  0.00  0.00    +0.000 C 
ATOM     17  N   UNL     1     -52.334   2.288 -18.117  0.00  0.00    +0.000 NA
ATOM     18  O   UNL     1     -52.874   1.917 -20.359  0.00  0.00    +0.000 OA
BRANCH  17  19
ATOM     19  C   UNL     1     -52.815   3.660 -18.114  0.00  0.00    +0.000 C 
BRANCH  19  20
ATOM     20  C   UNL     1     -52.616   4.258 -16.767  0.00  0.00    +0.000 A 
ATOM     21  C   UNL     1     -51.190   5.343 -15.207  0.00  0.00    +0.000 A 
ATOM     22  C   UNL     1     -52.200   5.330 -14.242  0.00  0.00    +0.000 A 
ATOM     23  C   UNL     1     -53.436   4.763 -14.558  0.00  0.00    +0.000 A 
ATOM     24  C   UNL     1     -53.649   4.219 -15.826  0.00  0.00    +0.000 A 
ATOM     25  N   UNL     1     -51.415   4.808 -16.438  0.00  0.00    +0.000 NA
ENDBRANCH  19  20
ENDBRANCH  17  19
ENDBRANCH  15  16
ENDBRANCH  14  15
ENDBRANCH   2  14
TORSDOF 7
