REMARK  Name = ZINC000015869695 MCULE-2885134168 MolPort-007-958-787
REMARK  5 active torsions:
REMARK  status: ('A' for Active; 'I' for Inactive)
REMARK    1  A    between atoms: C_7  and  C_18
REMARK    2  A    between atoms: C_10  and  C_12
REMARK    3  A    between atoms: C_18  and  N_19
REMARK    4  A    between atoms: N_19  and  S_21
REMARK    5  A    between atoms: S_21  and  C_24
REMARK                            x       y       z     vdW  Elec       q    Type
REMARK                         _______ _______ _______ _____ _____    ______ ____
ROOT
ATOM      1  N   UNL     1     -48.603  -2.580 -18.635  0.00  0.00    +0.000 N 
ATOM      2  C   UNL     1     -47.281  -2.890 -18.085  0.00  0.00    +0.000 C 
ATOM      3  C   UNL     1     -46.896  -1.706 -17.172  0.00  0.00    +0.000 C 
ATOM      4  C   UNL     1     -48.073  -0.807 -17.267  0.00  0.00    +0.000 A 
ATOM      5  C   UNL     1     -48.263   0.422 -16.635  0.00  0.00    +0.000 A 
ATOM      6  C   UNL     1     -49.459   1.117 -16.876  0.00  0.00    +0.000 A 
ATOM      7  C   UNL     1     -50.431   0.580 -17.742  0.00  0.00    +0.000 A 
ATOM      8  C   UNL     1     -50.217  -0.662 -18.363  0.00  0.00    +0.000 A 
ATOM      9  C   UNL     1     -49.020  -1.335 -18.100  0.00  0.00    +0.000 A 
ATOM     10  C   UNL     1     -49.433  -3.514 -19.353  0.00  0.00    +0.000 C 
ATOM     11  O   UNL     1     -50.686  -3.365 -19.341  0.00  0.00    +0.000 OA
ENDROOT
BRANCH  10  12
ATOM     12  C   UNL     1     -48.858  -4.657 -20.098  0.00  0.00    +0.000 A 
ATOM     13  C   UNL     1     -48.299  -4.485 -21.374  0.00  0.00    +0.000 A 
ATOM     14  C   UNL     1     -47.770  -5.576 -22.071  0.00  0.00    +0.000 A 
ATOM     15  C   UNL     1     -47.799  -6.851 -21.500  0.00  0.00    +0.000 A 
ATOM     16  C   UNL     1     -48.362  -7.035 -20.234  0.00  0.00    +0.000 A 
ATOM     17  C   UNL     1     -48.892  -5.944 -19.539  0.00  0.00    +0.000 A 
ENDBRANCH  10  12
BRANCH   7  18
ATOM     18  C   UNL     1     -51.703   1.316 -17.973  0.00  0.00    +0.000 C 
BRANCH  18  19
ATOM     19  N   UNL     1     -52.440   0.693 -19.060  0.00  0.00    +0.000 NA
ATOM     20  H   UNL     1     -53.428   0.623 -18.815  0.00  0.00    +0.000 HD
BRANCH  19  21
ATOM     21  S   UNL     1     -52.249   1.690 -20.464  0.00  0.00    +0.000 S 
ATOM     22  O   UNL     1     -53.602   2.035 -21.018  0.00  0.00    +0.000 OA
ATOM     23  O   UNL     1     -51.542   2.963 -20.084  0.00  0.00    +0.000 OA
BRANCH  21  24
ATOM     24  C   UNL     1     -51.326   0.833 -21.688  0.00  0.00    +0.000 A 
ATOM     25  C   UNL     1     -51.797   0.775 -23.022  0.00  0.00    +0.000 A 
ATOM     26  C   UNL     1     -51.061   0.108 -24.019  0.00  0.00    +0.000 A 
ATOM     27  C   UNL     1     -49.858  -0.480 -23.633  0.00  0.00    +0.000 A 
ATOM     28  C   UNL     1     -49.396  -0.420 -22.346  0.00  0.00    +0.000 A 
ATOM     29  C   UNL     1     -50.102   0.228 -21.337  0.00  0.00    +0.000 A 
ATOM     30  O   UNL     1     -48.245  -1.047 -22.269  0.00  0.00    +0.000 OA
ATOM     31  C   UNL     1     -47.999  -1.487 -23.492  0.00  0.00    +0.000 A 
ATOM     32  N   UNL     1     -48.974  -1.163 -24.375  0.00  0.00    +0.000 N 
ATOM     33  C   UNL     1     -49.039  -1.474 -25.795  0.00  0.00    +0.000 C 
ATOM     34  O   UNL     1     -46.966  -2.138 -23.800  0.00  0.00    +0.000 OA
ENDBRANCH  21  24
ENDBRANCH  19  21
ENDBRANCH  18  19
ENDBRANCH   7  18
TORSDOF 5
