REMARK  Name = ZINC000030726767 ZINC30726767 PubChem-37870901
REMARK  7 active torsions:
REMARK  status: ('A' for Active; 'I' for Inactive)
REMARK    1  A    between atoms: N_1  and  C_10
REMARK    2  A    between atoms: C_2  and  C_18
REMARK    3  A    between atoms: C_5  and  O_15
REMARK    4  A    between atoms: O_15  and  C_17
REMARK    5  A    between atoms: C_18  and  C_19
REMARK    6  A    between atoms: C_19  and  C_20
REMARK    7  A    between atoms: C_29  and  O_32
REMARK                            x       y       z     vdW  Elec       q    Type
REMARK                         _______ _______ _______ _____ _____    ______ ____
ROOT
ATOM      1  N   UNL     1     -52.240   2.424 -18.976  0.00  0.00    +0.000 N 
ATOM      2  C   UNL     1     -52.567   1.870 -20.257  0.00  0.00    +0.000 C 
ATOM      3  O   UNL     1     -53.392   2.474 -20.990  0.00  0.00    +0.000 OA
ATOM      4  H   UNL     1     -52.554   3.341 -18.805  0.00  0.00    +0.000 HD
ENDROOT
BRANCH   1  10
ATOM      5  C   UNL     1     -51.502   2.397 -16.632  0.00  0.00    +0.000 A 
ATOM      6  C   UNL     1     -50.806   1.783 -15.568  0.00  0.00    +0.000 A 
ATOM      7  C   UNL     1     -50.138   0.587 -15.812  0.00  0.00    +0.000 A 
ATOM      8  C   UNL     1     -50.155   0.003 -17.041  0.00  0.00    +0.000 A 
ATOM      9  C   UNL     1     -50.832   0.573 -18.114  0.00  0.00    +0.000 A 
ATOM     10  C   UNL     1     -51.506   1.795 -17.914  0.00  0.00    +0.000 A 
ATOM     11  O   UNL     1     -49.435  -1.170 -17.050  0.00  0.00    +0.000 OA
ATOM     12  C   UNL     1     -48.875  -1.410 -15.758  0.00  0.00    +0.000 C 
ATOM     13  C   UNL     1     -49.346  -0.239 -14.867  0.00  0.00    +0.000 C 
ATOM     14  C   UNL     1     -49.401  -2.719 -15.206  0.00  0.00    +0.000 C 
BRANCH   5  15
ATOM     15  O   UNL     1     -52.190   3.601 -16.442  0.00  0.00    +0.000 OA
BRANCH  15  17
ATOM     16  C   UNL     1     -51.331   5.692 -15.644  0.00  0.00    +0.000 C 
ATOM     17  C   UNL     1     -52.033   4.401 -15.278  0.00  0.00    +0.000 C 
ENDBRANCH  15  17
ENDBRANCH   5  15
ENDBRANCH   1  10
BRANCH   2  18
ATOM     18  C   UNL     1     -51.901   0.644 -20.788  0.00  0.00    +0.000 C 
BRANCH  18  19
ATOM     19  C   UNL     1     -50.825   1.036 -21.786  0.00  0.00    +0.000 C 
BRANCH  19  20
ATOM     20  C   UNL     1     -50.014  -0.163 -22.188  0.00  0.00    +0.000 A 
ATOM     21  C   UNL     1     -50.458  -0.987 -23.253  0.00  0.00    +0.000 A 
ATOM     22  C   UNL     1     -49.650  -2.078 -23.605  0.00  0.00    +0.000 A 
ATOM     23  C   UNL     1     -48.513  -2.353 -22.899  0.00  0.00    +0.000 A 
ATOM     24  N   UNL     1     -48.077  -1.580 -21.876  0.00  0.00    +0.000 NA
ATOM     25  C   UNL     1     -48.797  -0.477 -21.518  0.00  0.00    +0.000 A 
ATOM     26  C   UNL     1     -48.276   0.381 -20.415  0.00  0.00    +0.000 C 
ATOM     27  N   UNL     1     -47.953  -3.489 -23.337  0.00  0.00    +0.000 N 
ATOM     28  N   UNL     1     -48.688  -3.975 -24.328  0.00  0.00    +0.000 NA
ATOM     29  C   UNL     1     -49.725  -3.125 -24.528  0.00  0.00    +0.000 A 
ATOM     30  C   UNL     1     -46.751  -4.122 -22.824  0.00  0.00    +0.000 C 
ATOM     31  C   UNL     1     -51.779  -0.741 -23.905  0.00  0.00    +0.000 C 
BRANCH  29  32
ATOM     32  O   UNL     1     -50.670  -3.334 -25.535  0.00  0.00    +0.000 OA
ATOM     33  C   UNL     1     -50.525  -2.812 -26.845  0.00  0.00    +0.000 C 
ENDBRANCH  29  32
ENDBRANCH  19  20
ENDBRANCH  18  19
ENDBRANCH   2  18
TORSDOF 7
