REMARK  Name = ZINC000065211338 ZINC65211338 ChemDiv-P103-1195 MolPort-010-919-102 PubChem-53160942
REMARK  7 active torsions:
REMARK  status: ('A' for Active; 'I' for Inactive)
REMARK    1  A    between atoms: C_2  and  C_3
REMARK    2  A    between atoms: C_4  and  C_5
REMARK    3  A    between atoms: C_6  and  S_25
REMARK    4  A    between atoms: C_7  and  C_8
REMARK    5  A    between atoms: C_7  and  S_25
REMARK    6  A    between atoms: C_9  and  C_10
REMARK    7  A    between atoms: C_9  and  N_20
REMARK                            x       y       z     vdW  Elec       q    Type
REMARK                         _______ _______ _______ _____ _____    ______ ____
ROOT
ATOM      1  C   UNL     1     -49.739  -2.356 -20.332  0.00  0.00    +0.000 A 
ATOM      2  C   UNL     1     -49.988  -1.715 -19.090  0.00  0.00    +0.000 A 
ATOM      3  C   UNL     1     -50.096  -3.824 -17.985  0.00  0.00    +0.000 A 
ATOM      4  C   UNL     1     -49.858  -4.495 -19.180  0.00  0.00    +0.000 A 
ATOM      5  C   UNL     1     -49.680  -3.757 -20.348  0.00  0.00    +0.000 A 
ATOM      6  N   UNL     1     -50.155  -2.467 -17.968  0.00  0.00    +0.000 NA
ENDROOT
BRANCH   1   8
ATOM      7  C   UNL     1     -49.212  -1.255 -23.646  0.00  0.00    +0.000 A 
ATOM      8  C   UNL     1     -49.539  -1.645 -21.619  0.00  0.00    +0.000 A 
ATOM      9  N   UNL     1     -49.341  -2.287 -22.793  0.00  0.00    +0.000 NA
ATOM     10  N   UNL     1     -49.529  -0.304 -21.769  0.00  0.00    +0.000 NA
ATOM     11  O   UNL     1     -49.326  -0.104 -23.035  0.00  0.00    +0.000 OA
BRANCH   7  13
ATOM     12  C   UNL     1     -47.645  -0.800 -25.489  0.00  0.00    +0.000 C 
ATOM     13  C   UNL     1     -48.978  -1.413 -25.108  0.00  0.00    +0.000 C 
ENDBRANCH   7  13
ENDBRANCH   1   8
BRANCH   2  14
ATOM     14  S   UNL     1     -50.094   0.067 -18.909  0.00  0.00    +0.000 S 
BRANCH  14  15
ATOM     15  C   UNL     1     -51.882   0.071 -19.236  0.00  0.00    +0.000 C 
BRANCH  15  16
ATOM     16  C   UNL     1     -52.388   1.469 -19.285  0.00  0.00    +0.000 C 
ATOM     17  N   UNL     1     -52.333   2.288 -18.117  0.00  0.00    +0.000 NA
ATOM     18  O   UNL     1     -52.874   1.916 -20.359  0.00  0.00    +0.000 OA
BRANCH  17  19
ATOM     19  C   UNL     1     -52.814   3.660 -18.115  0.00  0.00    +0.000 C 
BRANCH  19  20
ATOM     20  C   UNL     1     -52.613   4.260 -16.768  0.00  0.00    +0.000 A 
ATOM     21  C   UNL     1     -51.413   4.902 -16.453  0.00  0.00    +0.000 A 
ATOM     22  C   UNL     1     -51.227   5.440 -15.179  0.00  0.00    +0.000 A 
ATOM     23  C   UNL     1     -52.249   5.322 -14.233  0.00  0.00    +0.000 A 
ATOM     24  C   UNL     1     -53.608   4.156 -15.793  0.00  0.00    +0.000 A 
ATOM     25  N   UNL     1     -53.408   4.687 -14.556  0.00  0.00    +0.000 NA
ENDBRANCH  19  20
ENDBRANCH  17  19
ENDBRANCH  15  16
ENDBRANCH  14  15
ENDBRANCH   2  14
TORSDOF 7
