REMARK  Name = ZINC000006760457 MCULE-2101817835 MolPort-002-670-898
REMARK  7 active torsions:
REMARK  status: ('A' for Active; 'I' for Inactive)
REMARK    1  A    between atoms: C_1  and  C_2
REMARK    2  A    between atoms: C_2  and  C_3
REMARK    3  A    between atoms: CA_4  and  C_5
REMARK    4  A    between atoms: CA_4  and  CB_6
REMARK    5  A    between atoms: CA_4  and  N_30
REMARK    6  A    between atoms: CB_6  and  CG_7
REMARK    7  A    between atoms: C_17  and  C_18
REMARK                            x       y       z     vdW  Elec       q    Type
REMARK                         _______ _______ _______ _____ _____    ______ ____
ROOT
ATOM      1  C   UNK A   0     -49.604  -0.358 -18.929  0.00  0.00    +0.000 A 
ATOM      2  C   UNK A   0     -49.760  -1.755 -18.987  0.00  0.00    +0.000 A 
ATOM      3  C   UNK A   0     -49.254  -1.800 -21.263  0.00  0.00    +0.000 A 
ATOM      4  C   UNK A   0     -49.077  -0.385 -21.293  0.00  0.00    +0.000 A 
ATOM      5  C   UNK A   0     -48.729   0.256 -22.501  0.00  0.00    +0.000 A 
ATOM      6  C   UNK A   0     -48.571  -0.538 -23.635  0.00  0.00    +0.000 A 
ATOM      7  C   UNK A   0     -48.741  -1.892 -23.602  0.00  0.00    +0.000 A 
ATOM      8  C   UNK A   0     -48.233  -1.432 -25.626  0.00  0.00    +0.000 A 
ATOM      9  C   UNK A   0     -48.241  -0.215 -24.936  0.00  0.00    +0.000 A 
ATOM     10  C   UNK A   0     -49.084  -2.564 -22.432  0.00  0.00    +0.000 A 
ATOM     11  C   UNK A   0     -49.257   0.336 -20.102  0.00  0.00    +0.000 A 
ATOM     12  C   UNK A   0     -49.076   1.825 -20.078  0.00  0.00    +0.000 C 
ATOM     13  O   UNK A   0     -50.072  -2.404 -17.953  0.00  0.00    +0.000 OA
ATOM     14  O   UNK A   0     -49.581  -2.409 -20.130  0.00  0.00    +0.000 OA
ATOM     15  O   UNK A   0     -48.538  -2.410 -24.788  0.00  0.00    +0.000 OA
ENDROOT
BRANCH   9  16
ATOM     16  C   UNK A   0     -47.952   1.157 -25.495  0.00  0.00    +0.000 C 
ATOM     17  C   UNK A   0     -46.766   1.768 -24.773  0.00  0.00    +0.000 C 
ATOM     18  C   UNK A   0     -49.160   2.055 -25.308  0.00  0.00    +0.000 C 
ATOM     19  C   UNK A   0     -47.627   1.097 -26.979  0.00  0.00    +0.000 C 
ENDBRANCH   9  16
BRANCH   1  20
ATOM     20  C   UNK A   0     -49.836   0.375 -17.638  0.00  0.00    +0.000 C 
BRANCH  20  21
ATOM     21  C   UNK A   0     -51.279   0.712 -17.480  0.00  0.00    +0.000 C 
ATOM     22  O   UNK A   0     -52.014  -0.015 -16.761  0.00  0.00    +0.000 OA
ATOM     23  N   LEU A   1     -51.822   1.837 -18.174  0.00  0.00    +0.000 NA
BRANCH  23  24
ATOM     24  CA  LEU A   1     -53.225   2.222 -18.073  0.00  0.00    +0.000 C 
BRANCH  24  25
ATOM     25  C   LEU A   1     -53.599   3.153 -19.216  0.00  0.00    +0.000 C 
ATOM     26  O   LEU A   1     -53.513   2.473 -20.431  0.00  0.00    +0.000 OA
ENDBRANCH  24  25
BRANCH  24  27
ATOM     27  CB  LEU A   1     -53.531   2.864 -16.717  0.00  0.00    +0.000 C 
BRANCH  27  28
ATOM     28  CG  LEU A   1     -52.750   4.150 -16.469  0.00  0.00    +0.000 C 
ATOM     29  CD1 LEU A   1     -53.536   5.035 -15.525  0.00  0.00    +0.000 C 
ATOM     30  CD2 LEU A   1     -51.404   3.837 -15.846  0.00  0.00    +0.000 C 
ENDBRANCH  27  28
ENDBRANCH  24  27
ENDBRANCH  23  24
ENDBRANCH  20  21
ENDBRANCH   1  20
TORSDOF 7
