REMARK  Name = ZINC000011845161 MCULE-6424288385 MolPort-005-300-936
REMARK  9 active torsions:
REMARK  status: ('A' for Active; 'I' for Inactive)
REMARK    1  A    between atoms: C_2  and  C_3
REMARK    2  A    between atoms: C_2  and  N_18
REMARK    3  A    between atoms: C_3  and  C_4
REMARK    4  A    between atoms: C_4  and  O_22
REMARK    5  A    between atoms: C_6  and  C_13
REMARK    6  A    between atoms: C_14  and  C_15
REMARK    7  A    between atoms: C_14  and  N_21
REMARK    8  A    between atoms: C_15  and  O_26
REMARK    9  A    between atoms: C_16  and  O_26
REMARK                            x       y       z     vdW  Elec       q    Type
REMARK                         _______ _______ _______ _____ _____    ______ ____
ROOT
ATOM      1  C   UNL     1     -49.713  -0.123 -21.025  0.00  0.00    +0.000 A 
ATOM      2  C   UNL     1     -51.461   1.078 -20.624  0.00  0.00    +0.000 A 
ATOM      3  C   UNL     1     -51.412   0.938 -22.012  0.00  0.00    +0.000 A 
ATOM      4  C   UNL     1     -50.288   0.166 -22.225  0.00  0.00    +0.000 A 
ATOM      5  C   UNL     1     -49.726  -0.301 -23.402  0.00  0.00    +0.000 A 
ATOM      6  C   UNL     1     -47.971  -1.559 -24.550  0.00  0.00    +0.000 C 
ATOM      7  C   UNL     1     -47.997  -1.321 -22.107  0.00  0.00    +0.000 A 
ATOM      8  C   UNL     1     -47.891  -1.097 -19.670  0.00  0.00    +0.000 C 
ATOM      9  N   UNL     1     -50.431   0.423 -20.019  0.00  0.00    +0.000 N 
ATOM     10  N   UNL     1     -48.582  -1.051 -23.325  0.00  0.00    +0.000 N 
ATOM     11  N   UNL     1     -48.559  -0.851 -20.943  0.00  0.00    +0.000 N 
ATOM     12  O   UNL     1     -46.934  -2.003 -22.059  0.00  0.00    +0.000 OA
ATOM     13  O   UNL     1     -50.261  -0.038 -24.515  0.00  0.00    +0.000 OA
ENDROOT
BRANCH   2  14
ATOM     14  C   UNL     1     -52.508   1.861 -19.933  0.00  0.00    +0.000 C 
ATOM     15  N   UNL     1     -52.410   2.138 -18.535  0.00  0.00    +0.000 NA
ATOM     16  O   UNL     1     -53.487   2.305 -20.592  0.00  0.00    +0.000 OA
BRANCH  15  17
ATOM     17  C   UNL     1     -53.418   2.905 -17.824  0.00  0.00    +0.000 C 
BRANCH  17  18
ATOM     18  C   UNL     1     -53.049   2.997 -16.387  0.00  0.00    +0.000 C 
ATOM     19  O   UNL     1     -53.545   2.181 -15.564  0.00  0.00    +0.000 OA
BRANCH  18  20
ATOM     20  O   UNL     1     -52.130   3.962 -15.974  0.00  0.00    +0.000 OA
BRANCH  20  21
ATOM     21  C   UNL     1     -51.726   4.079 -14.618  0.00  0.00    +0.000 C 
ATOM     22  C   UNL     1     -50.724   5.206 -14.486  0.00  0.00    +0.000 C 
ENDBRANCH  20  21
ENDBRANCH  18  20
ENDBRANCH  17  18
ENDBRANCH  15  17
ENDBRANCH   2  14
BRANCH   9  23
ATOM     23  C   UNL     1     -50.220   0.251 -18.582  0.00  0.00    +0.000 C 
BRANCH  23  24
ATOM     24  C   UNL     1     -51.245  -0.714 -17.994  0.00  0.00    +0.000 C 
BRANCH  24  25
ATOM     25  C   UNL     1     -51.020  -2.135 -18.482  0.00  0.00    +0.000 C 
BRANCH  25  27
ATOM     26  C   UNL     1     -49.746  -3.935 -18.445  0.00  0.00    +0.000 C 
ATOM     27  O   UNL     1     -49.912  -2.689 -17.841  0.00  0.00    +0.000 OA
ENDBRANCH  25  27
ENDBRANCH  24  25
ENDBRANCH  23  24
ENDBRANCH   9  23
TORSDOF 9
