REMARK  Name = ZINC000006281134 ZINC06281134 PubChem-40601604
REMARK  8 active torsions:
REMARK  status: ('A' for Active; 'I' for Inactive)
REMARK    1  A    between atoms: C_5  and  C_6
REMARK    2  A    between atoms: C_7  and  C_8
REMARK    3  A    between atoms: C_7  and  N_31
REMARK    4  A    between atoms: C_9  and  C_10
REMARK    5  A    between atoms: C_9  and  N_33
REMARK    6  A    between atoms: C_11  and  C_12
REMARK    7  A    between atoms: C_11  and  N_34
REMARK    8  A    between atoms: C_16  and  N_33
REMARK                            x       y       z     vdW  Elec       q    Type
REMARK                         _______ _______ _______ _____ _____    ______ ____
ROOT
ATOM      1  C   UNL     1     -49.904  -0.136 -19.196  0.00  0.00    +0.000 C 
ATOM      2  O   UNL     1     -48.691   0.143 -19.392  0.00  0.00    +0.000 OA
ATOM      3  N   UNL     1     -50.851  -0.093 -20.284  0.00  0.00    +0.000 N 
ENDROOT
BRANCH   3   4
ATOM      4  C   UNL     1     -50.434  -0.169 -21.667  0.00  0.00    +0.000 A 
ATOM      5  C   UNL     1     -49.192  -0.719 -22.020  0.00  0.00    +0.000 A 
ATOM      6  C   UNL     1     -48.811  -0.798 -23.359  0.00  0.00    +0.000 A 
ATOM      7  C   UNL     1     -47.570  -1.330 -23.718  0.00  0.00    +0.000 A 
ATOM      8  C   UNL     1     -47.202  -1.391 -25.066  0.00  0.00    +0.000 A 
ATOM      9  C   UNL     1     -48.074  -0.919 -26.054  0.00  0.00    +0.000 A 
ATOM     10  C   UNL     1     -49.318  -0.385 -25.699  0.00  0.00    +0.000 A 
ATOM     11  C   UNL     1     -49.689  -0.321 -24.354  0.00  0.00    +0.000 A 
ATOM     12  C   UNL     1     -51.279   0.283 -22.696  0.00  0.00    +0.000 A 
ATOM     13  N   UNL     1     -50.891   0.202 -23.999  0.00  0.00    +0.000 NA
ENDBRANCH   3   4
BRANCH   1  14
ATOM     14  C   UNL     1     -50.354  -0.455 -17.803  0.00  0.00    +0.000 C 
BRANCH  14  18
ATOM     15  C   UNL     1     -48.941  -3.534 -16.878  0.00  0.00    +0.000 A 
ATOM     16  N   UNL     1     -48.053  -2.701 -16.297  0.00  0.00    +0.000 NA
ATOM     17  N   UNL     1     -48.499  -1.486 -16.573  0.00  0.00    +0.000 NA
ATOM     18  N   UNL     1     -49.610  -1.590 -17.280  0.00  0.00    +0.000 N 
ATOM     19  N   UNL     1     -49.921  -2.854 -17.503  0.00  0.00    +0.000 NA
BRANCH  15  24
ATOM     20  C   UNL     1     -50.045  -8.223 -17.698  0.00  0.00    +0.000 C 
ATOM     21  C   UNL     1     -49.331  -7.025 -17.186  0.00  0.00    +0.000 A 
ATOM     22  C   UNL     1     -48.200  -7.053 -16.393  0.00  0.00    +0.000 A 
ATOM     23  C   UNL     1     -47.886  -5.723 -16.162  0.00  0.00    +0.000 A 
ATOM     24  C   UNL     1     -48.855  -4.996 -16.833  0.00  0.00    +0.000 A 
ATOM     25  O   UNL     1     -49.701  -5.795 -17.433  0.00  0.00    +0.000 OA
ENDBRANCH  15  24
ENDBRANCH  14  18
ENDBRANCH   1  14
BRANCH   3  26
ATOM     26  C   UNL     1     -52.272   0.078 -19.976  0.00  0.00    +0.000 C 
BRANCH  26  27
ATOM     27  C   UNL     1     -52.573   1.513 -19.694  0.00  0.00    +0.000 C 
ATOM     28  O   UNL     1     -52.885   2.286 -20.638  0.00  0.00    +0.000 OA
ATOM     29  N   UNL     1     -52.462   2.003 -18.359  0.00  0.00    +0.000 NA
BRANCH  29  30
ATOM     30  C   UNL     1     -52.712   3.397 -18.026  0.00  0.00    +0.000 C 
BRANCH  30  31
ATOM     31  C   UNL     1     -52.562   3.600 -16.529  0.00  0.00    +0.000 C 
ATOM     32  C   UNL     1     -52.986   5.002 -16.159  0.00  0.00    +0.000 C 
ATOM     33  C   UNL     1     -51.977   5.424 -15.132  0.00  0.00    +0.000 C 
ATOM     34  C   UNL     1     -51.068   4.224 -15.001  0.00  0.00    +0.000 C 
ATOM     35  O   UNL     1     -51.222   3.427 -16.144  0.00  0.00    +0.000 OA
ENDBRANCH  30  31
ENDBRANCH  29  30
ENDBRANCH  26  27
ENDBRANCH   3  26
TORSDOF 8
