REMARK  Name = ZINC000585168577 PubChem-110087557
REMARK  8 active torsions:
REMARK  status: ('A' for Active; 'I' for Inactive)
REMARK    1  A    between atoms: C_2  and  N_24
REMARK    2  A    between atoms: C_3  and  C_17
REMARK    3  A    between atoms: C_4  and  C_7
REMARK    4  A    between atoms: C_8  and  C_9
REMARK    5  A    between atoms: C_8  and  N_25
REMARK    6  A    between atoms: C_14  and  C_15
REMARK    7  A    between atoms: C_15  and  O_28
REMARK    8  A    between atoms: C_20  and  O_29
REMARK                            x       y       z     vdW  Elec       q    Type
REMARK                         _______ _______ _______ _____ _____    ______ ____
ROOT
ATOM      1  C   UNL     1     -50.093   0.310 -19.887  0.00  0.00    +0.000 C 
ATOM      2  C   UNL     1     -51.619   0.117 -19.850  0.00  0.00    +0.000 C 
ATOM      3  C   UNL     1     -51.935  -0.922 -18.770  0.00  0.00    +0.000 C 
ATOM      4  C   UNL     1     -50.595  -1.371 -18.343  0.00  0.00    +0.000 C 
ATOM      5  N   UNL     1     -49.540  -0.712 -19.016  0.00  0.00    +0.000 N 
ATOM      6  O   UNL     1     -50.405  -2.239 -17.451  0.00  0.00    +0.000 OA
ENDROOT
BRANCH   1   7
ATOM      7  C   UNL     1     -49.563   0.174 -21.281  0.00  0.00    +0.000 A 
ATOM      8  C   UNL     1     -48.903   1.258 -21.868  0.00  0.00    +0.000 A 
ATOM      9  C   UNL     1     -48.398   1.154 -23.167  0.00  0.00    +0.000 A 
ATOM     10  C   UNL     1     -48.548  -0.033 -23.892  0.00  0.00    +0.000 A 
ATOM     11  C   UNL     1     -49.210  -1.122 -23.301  0.00  0.00    +0.000 A 
ATOM     12  C   UNL     1     -49.715  -1.019 -22.003  0.00  0.00    +0.000 A 
BRANCH  10  14
ATOM     13  C   UNL     1     -48.142  -1.268 -25.996  0.00  0.00    +0.000 C 
ATOM     14  O   UNL     1     -48.032  -0.104 -25.188  0.00  0.00    +0.000 OA
ENDBRANCH  10  14
ENDBRANCH   1   7
BRANCH   2  15
ATOM     15  C   UNL     1     -52.343   1.409 -19.610  0.00  0.00    +0.000 C 
ATOM     16  N   UNL     1     -52.146   2.196 -18.430  0.00  0.00    +0.000 NA
ATOM     17  O   UNL     1     -53.166   1.805 -20.476  0.00  0.00    +0.000 OA
BRANCH  16  18
ATOM     18  C   UNL     1     -51.179   1.868 -17.395  0.00  0.00    +0.000 C 
BRANCH  18  19
ATOM     19  C   UNL     1     -51.353   2.780 -16.227  0.00  0.00    +0.000 A 
ATOM     20  C   UNL     1     -50.659   3.995 -16.209  0.00  0.00    +0.000 A 
ATOM     21  C   UNL     1     -50.807   4.875 -15.134  0.00  0.00    +0.000 A 
ATOM     22  C   UNL     1     -51.653   4.545 -14.072  0.00  0.00    +0.000 A 
ATOM     23  C   UNL     1     -52.354   3.336 -14.087  0.00  0.00    +0.000 A 
ATOM     24  C   UNL     1     -52.217   2.453 -15.164  0.00  0.00    +0.000 A 
BRANCH  24  25
ATOM     25  C   UNL     1     -52.971   1.164 -15.138  0.00  0.00    +0.000 C 
BRANCH  25  27
ATOM     26  C   UNL     1     -52.803  -1.033 -15.069  0.00  0.00    +0.000 C 
ATOM     27  O   UNL     1     -52.135   0.135 -14.705  0.00  0.00    +0.000 OA
ENDBRANCH  25  27
ENDBRANCH  24  25
ENDBRANCH  18  19
ENDBRANCH  16  18
ENDBRANCH   2  15
BRANCH   5  29
ATOM     28  C   UNL     1     -47.335  -1.717 -19.196  0.00  0.00    +0.000 C 
ATOM     29  C   UNL     1     -48.177  -0.661 -18.508  0.00  0.00    +0.000 C 
ENDBRANCH   5  29
TORSDOF 8
