REMARK  Name = ZINC000001703511 PubChem-92161731
REMARK  9 active torsions:
REMARK  status: ('A' for Active; 'I' for Inactive)
REMARK    1  A    between atoms: N_17  and  C_20
REMARK    2  A    between atoms: C_20  and  C_21
REMARK    3  A    between atoms: C_21  and  O_22
REMARK    4  A    between atoms: C_21  and  C_24
REMARK    5  A    between atoms: C_24  and  O_25
REMARK    6  A    between atoms: C_24  and  C_27
REMARK    7  A    between atoms: C_27  and  O_28
REMARK    8  A    between atoms: C_27  and  C_30
REMARK    9  A    between atoms: C_30  and  O_31
REMARK                            x       y       z     vdW  Elec       q    Type
REMARK                         _______ _______ _______ _____ _____    ______ ____
ROOT
ATOM      1  C   UNL     1     -49.252  -0.797 -25.820  0.00  0.00    +0.000 C 
ATOM      2  C   UNL     1     -49.275  -0.631 -24.338  0.00  0.00    +0.000 A 
ATOM      3  C   UNL     1     -48.324  -1.257 -23.514  0.00  0.00    +0.000 A 
ATOM      4  C   UNL     1     -48.379  -1.077 -22.130  0.00  0.00    +0.000 A 
ATOM      5  C   UNL     1     -49.374  -0.278 -21.540  0.00  0.00    +0.000 A 
ATOM      6  C   UNL     1     -50.327   0.350 -22.385  0.00  0.00    +0.000 A 
ATOM      7  C   UNL     1     -50.269   0.168 -23.768  0.00  0.00    +0.000 A 
ATOM      8  C   UNL     1     -51.329   1.153 -21.848  0.00  0.00    +0.000 A 
ATOM      9  C   UNL     1     -51.394   1.343 -20.473  0.00  0.00    +0.000 A 
ATOM     10  C   UNL     1     -52.364   2.134 -19.854  0.00  0.00    +0.000 A 
ATOM     11  O   UNL     1     -53.246   2.724 -20.533  0.00  0.00    +0.000 OA
ATOM     12  N   UNL     1     -52.355   2.269 -18.502  0.00  0.00    +0.000 N 
ATOM     13  C   UNL     1     -51.425   1.656 -17.718  0.00  0.00    +0.000 A 
ATOM     14  O   UNL     1     -51.461   1.814 -16.470  0.00  0.00    +0.000 OA
ATOM     15  N   UNL     1     -50.460   0.874 -18.270  0.00  0.00    +0.000 NA
ATOM     16  C   UNL     1     -50.393   0.681 -19.614  0.00  0.00    +0.000 A 
ATOM     17  N   UNL     1     -49.425  -0.106 -20.175  0.00  0.00    +0.000 N 
ATOM     18  C   UNL     1     -47.246  -2.117 -24.081  0.00  0.00    +0.000 C 
ATOM     19  H   UNL     1     -53.043   2.829 -18.075  0.00  0.00    +0.000 HD
ENDROOT
BRANCH  17  20
ATOM     20  C   UNL     1     -48.450  -0.769 -19.304  0.00  0.00    +0.000 C 
BRANCH  20  21
ATOM     21  C   UNL     1     -49.060  -2.010 -18.660  0.00  0.00    +0.000 C 
BRANCH  21  22
ATOM     22  O   UNL     1     -49.139  -1.820 -17.279  0.00  0.00    +0.000 OA
ATOM     23  H   UNL     1     -48.249  -1.679 -16.921  0.00  0.00    +0.000 HD
ENDBRANCH  21  22
BRANCH  21  24
ATOM     24  C   UNL     1     -48.218  -3.250 -18.983  0.00  0.00    +0.000 C 
BRANCH  24  25
ATOM     25  O   UNL     1     -46.958  -2.864 -19.447  0.00  0.00    +0.000 OA
ATOM     26  H   UNL     1     -47.056  -2.365 -20.273  0.00  0.00    +0.000 HD
ENDBRANCH  24  25
BRANCH  24  27
ATOM     27  C   UNL     1     -48.865  -4.167 -20.024  0.00  0.00    +0.000 C 
BRANCH  27  28
ATOM     28  O   UNL     1     -50.204  -3.824 -20.234  0.00  0.00    +0.000 OA
ATOM     29  H   UNL     1     -50.702  -3.943 -19.410  0.00  0.00    +0.000 HD
ENDBRANCH  27  28
BRANCH  27  30
ATOM     30  C   UNL     1     -48.745  -5.630 -19.631  0.00  0.00    +0.000 C 
BRANCH  30  31
ATOM     31  O   UNL     1     -49.505  -6.417 -20.497  0.00  0.00    +0.000 OA
ATOM     32  H   UNL     1     -50.436  -6.149 -20.445  0.00  0.00    +0.000 HD
ENDBRANCH  30  31
ENDBRANCH  27  30
ENDBRANCH  24  27
ENDBRANCH  21  24
ENDBRANCH  20  21
ENDBRANCH  17  20
TORSDOF 9
