REMARK  Name = ZINC000021523792 ZINC21523792
REMARK  6 active torsions:
REMARK  status: ('A' for Active; 'I' for Inactive)
REMARK    1  A    between atoms: C_1  and  C_24
REMARK    2  A    between atoms: C_22  and  O_28
REMARK    3  A    between atoms: C_27  and  O_31
REMARK    4  A    between atoms: O_28  and  C_30
REMARK    5  A    between atoms: O_31  and  C_32
REMARK    6  A    between atoms: C_32  and  C_33
REMARK                            x       y       z     vdW  Elec       q    Type
REMARK                         _______ _______ _______ _____ _____    ______ ____
ROOT
ATOM      1  C   UNL     1     -47.907  -3.741 -23.592  0.00  0.00    +0.000 C 
ATOM      2  C   UNL     1     -47.741  -3.628 -25.100  0.00  0.00    +0.000 A 
ATOM      3  C   UNL     1     -47.653  -2.449 -25.843  0.00  0.00    +0.000 A 
ATOM      4  N   UNL     1     -47.446  -2.724 -27.142  0.00  0.00    +0.000 NA
ATOM      5  N   UNL     1     -47.375  -4.037 -27.273  0.00  0.00    +0.000 N 
ATOM      6  C   UNL     1     -47.514  -4.623 -26.061  0.00  0.00    +0.000 A 
ATOM      7  N   UNL     1     -47.360  -6.042 -25.877  0.00  0.00    +0.000 N 
ATOM      8  C   UNL     1     -47.161  -6.797 -24.680  0.00  0.00    +0.000 C 
ATOM      9  O   UNL     1     -47.041  -8.047 -24.758  0.00  0.00    +0.000 OA
ATOM     10  C   UNL     1     -47.089  -6.158 -23.347  0.00  0.00    +0.000 C 
ATOM     11  S   UNL     1     -48.649  -5.309 -23.053  0.00  0.00    +0.000 S 
ATOM     12  C   UNL     1     -47.700  -1.050 -25.329  0.00  0.00    +0.000 C 
ATOM     13  H   UNL     1     -47.398  -6.575 -26.704  0.00  0.00    +0.000 HD
ATOM     14  C   UNL     1     -47.141  -4.678 -28.538  0.00  0.00    +0.000 A 
ATOM     15  N   UNL     1     -46.790  -3.929 -29.619  0.00  0.00    +0.000 NA
ATOM     16  C   UNL     1     -46.568  -4.504 -30.830  0.00  0.00    +0.000 A 
ATOM     17  C   UNL     1     -46.702  -5.883 -30.981  0.00  0.00    +0.000 A 
ATOM     18  C   UNL     1     -47.063  -6.637 -29.867  0.00  0.00    +0.000 A 
ATOM     19  N   UNL     1     -47.276  -6.026 -28.673  0.00  0.00    +0.000 NA
ATOM     20  C   UNL     1     -47.217  -8.110 -29.985  0.00  0.00    +0.000 C 
ATOM     21  C   UNL     1     -46.187  -3.662 -31.994  0.00  0.00    +0.000 C 
ENDROOT
BRANCH   1  24
ATOM     22  C   UNL     1     -48.722  -0.639 -21.558  0.00  0.00    +0.000 A 
ATOM     23  C   UNL     1     -48.032  -1.704 -22.150  0.00  0.00    +0.000 A 
ATOM     24  C   UNL     1     -48.687  -2.614 -22.983  0.00  0.00    +0.000 A 
ATOM     25  C   UNL     1     -50.058  -2.469 -23.222  0.00  0.00    +0.000 A 
ATOM     26  C   UNL     1     -50.760  -1.415 -22.640  0.00  0.00    +0.000 A 
ATOM     27  C   UNL     1     -50.109  -0.488 -21.809  0.00  0.00    +0.000 A 
BRANCH  22  28
ATOM     28  O   UNL     1     -47.978   0.227 -20.743  0.00  0.00    +0.000 OA
BRANCH  28  30
ATOM     29  C   UNL     1     -48.640   0.217 -18.439  0.00  0.00    +0.000 C 
ATOM     30  C   UNL     1     -47.533  -0.077 -19.428  0.00  0.00    +0.000 C 
ENDBRANCH  28  30
ENDBRANCH  22  28
BRANCH  27  31
ATOM     31  O   UNL     1     -50.828   0.568 -21.232  0.00  0.00    +0.000 OA
BRANCH  31  32
ATOM     32  C   UNL     1     -51.891   0.382 -20.303  0.00  0.00    +0.000 C 
BRANCH  32  33
ATOM     33  C   UNL     1     -52.569   1.681 -20.029  0.00  0.00    +0.000 C 
ATOM     34  O   UNL     1     -53.325   2.191 -20.895  0.00  0.00    +0.000 OA
ATOM     35  N   UNL     1     -52.341   2.356 -18.798  0.00  0.00    +0.000 N 
ATOM     36  H   UNL     1     -51.749   1.958 -18.120  0.00  0.00    +0.000 HD
ATOM     37  H   UNL     1     -52.776   3.222 -18.625  0.00  0.00    +0.000 HD
ENDBRANCH  32  33
ENDBRANCH  31  32
ENDBRANCH  27  31
ENDBRANCH   1  24
TORSDOF 6
