REMARK  Name = ZINC000018200369
REMARK  2 active torsions:
REMARK  status: ('A' for Active; 'I' for Inactive)
REMARK    1  A    between atoms: C_1  and  C_31
REMARK    2  A    between atoms: C_3  and  O_4
REMARK                            x       y       z     vdW  Elec       q    Type
REMARK                         _______ _______ _______ _____ _____    ______ ____
ROOT
ATOM      1  C   UNL     1     -49.367  -0.116 -21.643  0.00  0.00    +0.000 C 
ATOM      2  C   UNL     1     -50.680   0.526 -21.968  0.00  0.00    +0.000 A 
ATOM      3  C   UNL     1     -51.423   1.502 -21.353  0.00  0.00    +0.000 A 
ATOM      4  N   UNL     1     -52.560   1.716 -22.051  0.00  0.00    +0.000 NA
ATOM      5  N   UNL     1     -52.563   0.899 -23.100  0.00  0.00    +0.000 N 
ATOM      6  C   UNL     1     -51.425   0.184 -23.044  0.00  0.00    +0.000 A 
ATOM      7  N   UNL     1     -51.000  -0.800 -23.976  0.00  0.00    +0.000 N 
ATOM      8  C   UNL     1     -49.711  -1.416 -23.796  0.00  0.00    +0.000 C 
ATOM      9  C   UNL     1     -48.921  -1.110 -22.723  0.00  0.00    +0.000 C 
ATOM     10  C   UNL     1     -47.562  -1.699 -22.629  0.00  0.00    +0.000 C 
ATOM     11  O   UNL     1     -46.786  -1.368 -21.694  0.00  0.00    +0.000 OA
ATOM     12  C   UNL     1     -47.094  -2.717 -23.627  0.00  0.00    +0.000 C 
ATOM     13  C   UNL     1     -47.774  -2.541 -24.983  0.00  0.00    +0.000 C 
ATOM     14  C   UNL     1     -47.459  -3.747 -25.841  0.00  0.00    +0.000 C 
ATOM     15  C   UNL     1     -47.245  -1.301 -25.687  0.00  0.00    +0.000 C 
ATOM     16  C   UNL     1     -49.291  -2.450 -24.807  0.00  0.00    +0.000 C 
ATOM     17  H   UNL     1     -53.264   0.831 -23.788  0.00  0.00    +0.000 HD
ATOM     18  H   UNL     1     -51.576  -1.057 -24.733  0.00  0.00    +0.000 HD
ENDROOT
BRANCH   1  29
ATOM     19  C   UNL     1     -50.512  -2.864 -21.033  0.00  0.00    +0.000 C 
ATOM     20  C   UNL     1     -49.910  -2.000 -19.976  0.00  0.00    +0.000 A 
ATOM     21  N   UNL     1     -49.881  -2.464 -18.699  0.00  0.00    +0.000 NA
ATOM     22  C   UNL     1     -49.353  -1.726 -17.690  0.00  0.00    +0.000 A 
ATOM     23  C   UNL     1     -49.331  -2.219 -16.383  0.00  0.00    +0.000 A 
ATOM     24  C   UNL     1     -48.783  -1.443 -15.356  0.00  0.00    +0.000 A 
ATOM     25  C   UNL     1     -48.258  -0.176 -15.635  0.00  0.00    +0.000 A 
ATOM     26  C   UNL     1     -48.278   0.321 -16.943  0.00  0.00    +0.000 A 
ATOM     27  C   UNL     1     -48.824  -0.452 -17.971  0.00  0.00    +0.000 A 
ATOM     28  N   UNL     1     -48.852   0.015 -19.245  0.00  0.00    +0.000 NA
ATOM     29  C   UNL     1     -49.377  -0.721 -20.262  0.00  0.00    +0.000 A 
ENDBRANCH   1  29
BRANCH   3  30
ATOM     30  O   UNL     1     -51.082   2.179 -20.190  0.00  0.00    +0.000 OA
ATOM     31  H   UNL     1     -50.277   1.984 -19.753  0.00  0.00    +0.000 HD
ENDBRANCH   3  30
TORSDOF 2
