REMARK  Name = ZINC000003831424 ZINC03831424 PubChem-6328150
REMARK  9 active torsions:
REMARK  status: ('A' for Active; 'I' for Inactive)
REMARK    1  A    between atoms: N_9  and  C_20
REMARK    2  A    between atoms: C_20  and  C_21
REMARK    3  A    between atoms: C_21  and  O_22
REMARK    4  A    between atoms: C_21  and  C_24
REMARK    5  A    between atoms: C_24  and  O_25
REMARK    6  A    between atoms: C_24  and  C_27
REMARK    7  A    between atoms: C_27  and  O_28
REMARK    8  A    between atoms: C_27  and  C_30
REMARK    9  A    between atoms: C_30  and  O_31
REMARK                            x       y       z     vdW  Elec       q    Type
REMARK                         _______ _______ _______ _____ _____    ______ ____
ROOT
ATOM      1  C   UNL     1     -49.268  -0.782 -25.742  0.00  0.00    +0.000 C 
ATOM      2  C   UNL     1     -49.288  -0.612 -24.261  0.00  0.00    +0.000 A 
ATOM      3  C   UNL     1     -50.295   0.169 -23.690  0.00  0.00    +0.000 A 
ATOM      4  C   UNL     1     -50.354   0.353 -22.306  0.00  0.00    +0.000 A 
ATOM      5  C   UNL     1     -49.390  -0.262 -21.462  0.00  0.00    +0.000 A 
ATOM      6  C   UNL     1     -48.376  -1.032 -22.054  0.00  0.00    +0.000 A 
ATOM      7  C   UNL     1     -48.320  -1.212 -23.438  0.00  0.00    +0.000 A 
ATOM      8  C   UNL     1     -47.223  -2.049 -24.006  0.00  0.00    +0.000 C 
ATOM      9  N   UNL     1     -49.449  -0.089 -20.099  0.00  0.00    +0.000 N 
ATOM     10  C   UNL     1     -50.411   0.720 -19.562  0.00  0.00    +0.000 A 
ATOM     11  N   UNL     1     -50.479   0.968 -18.227  0.00  0.00    +0.000 NA
ATOM     12  C   UNL     1     -51.448   1.771 -17.711  0.00  0.00    +0.000 A 
ATOM     13  O   UNL     1     -51.489   1.980 -16.471  0.00  0.00    +0.000 OA
ATOM     14  N   UNL     1     -52.376   2.350 -18.523  0.00  0.00    +0.000 N 
ATOM     15  C   UNL     1     -52.377   2.160 -19.870  0.00  0.00    +0.000 A 
ATOM     16  O   UNL     1     -53.252   2.721 -20.580  0.00  0.00    +0.000 OA
ATOM     17  C   UNL     1     -51.403   1.349 -20.448  0.00  0.00    +0.000 A 
ATOM     18  N   UNL     1     -51.332   1.135 -21.782  0.00  0.00    +0.000 NA
ATOM     19  H   UNL     1     -53.068   2.924 -18.123  0.00  0.00    +0.000 HD
ENDROOT
BRANCH   9  20
ATOM     20  C   UNL     1     -48.475  -0.741 -19.211  0.00  0.00    +0.000 C 
BRANCH  20  21
ATOM     21  C   UNL     1     -49.053  -1.980 -18.512  0.00  0.00    +0.000 C 
BRANCH  21  22
ATOM     22  O   UNL     1     -50.376  -2.195 -18.905  0.00  0.00    +0.000 OA
ATOM     23  H   UNL     1     -50.405  -2.372 -19.859  0.00  0.00    +0.000 HD
ENDBRANCH  21  22
BRANCH  21  24
ATOM     24  C   UNL     1     -48.204  -3.228 -18.752  0.00  0.00    +0.000 C 
BRANCH  24  25
ATOM     25  O   UNL     1     -46.973  -3.099 -18.101  0.00  0.00    +0.000 OA
ATOM     26  H   UNL     1     -47.119  -3.014 -17.145  0.00  0.00    +0.000 HD
ENDBRANCH  24  25
BRANCH  24  27
ATOM     27  C   UNL     1     -48.918  -4.492 -18.276  0.00  0.00    +0.000 C 
BRANCH  27  28
ATOM     28  O   UNL     1     -49.515  -4.281 -17.030  0.00  0.00    +0.000 OA
ATOM     29  H   UNL     1     -48.832  -4.061 -16.377  0.00  0.00    +0.000 HD
ENDBRANCH  27  28
BRANCH  27  30
ATOM     30  C   UNL     1     -47.940  -5.650 -18.195  0.00  0.00    +0.000 C 
BRANCH  30  31
ATOM     31  O   UNL     1     -48.562  -6.757 -17.617  0.00  0.00    +0.000 OA
ATOM     32  H   UNL     1     -48.860  -6.530 -16.723  0.00  0.00    +0.000 HD
ENDBRANCH  30  31
ENDBRANCH  27  30
ENDBRANCH  24  27
ENDBRANCH  21  24
ENDBRANCH  20  21
ENDBRANCH   9  20
TORSDOF 9
