REMARK  Name = ZINC000067641329 MCULE-5536280821 MolPort-016-591-893
REMARK  3 active torsions:
REMARK  status: ('A' for Active; 'I' for Inactive)
REMARK    1  A    between atoms: C_1  and  C_6
REMARK    2  A    between atoms: N_2  and  C_19
REMARK    3  A    between atoms: C_4  and  C_26
REMARK                            x       y       z     vdW  Elec       q    Type
REMARK                         _______ _______ _______ _____ _____    ______ ____
ROOT
ATOM      1  C   UNL     1     -50.353  -1.290 -19.492  0.00  0.00    +0.000 A 
ATOM      2  N   UNL     1     -50.073  -1.859 -20.689  0.00  0.00    +0.000 N 
ATOM      3  N   UNL     1     -49.533  -3.042 -20.454  0.00  0.00    +0.000 NA
ATOM      4  C   UNL     1     -49.492  -3.169 -19.114  0.00  0.00    +0.000 A 
ATOM      5  N   UNL     1     -49.997  -2.096 -18.471  0.00  0.00    +0.000 NA
ENDROOT
BRANCH   1   6
ATOM      6  C   UNL     1     -51.075  -0.015 -19.285  0.00  0.00    +0.000 A 
ATOM      7  C   UNL     1     -51.961   0.431 -20.272  0.00  0.00    +0.000 A 
ATOM      8  C   UNL     1     -52.684   1.609 -20.084  0.00  0.00    +0.000 A 
ATOM      9  O   UNL     1     -53.473   2.010 -20.978  0.00  0.00    +0.000 OA
ATOM     10  N   UNL     1     -52.540   2.324 -18.937  0.00  0.00    +0.000 N 
ATOM     11  C   UNL     1     -51.700   1.921 -17.948  0.00  0.00    +0.000 A 
ATOM     12  C   UNL     1     -51.583   2.687 -16.784  0.00  0.00    +0.000 A 
ATOM     13  C   UNL     1     -50.718   2.283 -15.764  0.00  0.00    +0.000 A 
ATOM     14  C   UNL     1     -49.966   1.114 -15.903  0.00  0.00    +0.000 A 
ATOM     15  F   UNL     1     -49.127   0.727 -14.913  0.00  0.00    +0.000 F 
ATOM     16  C   UNL     1     -50.077   0.343 -17.064  0.00  0.00    +0.000 A 
ATOM     17  C   UNL     1     -50.946   0.733 -18.095  0.00  0.00    +0.000 A 
ATOM     18  H   UNL     1     -53.057   3.153 -18.821  0.00  0.00    +0.000 HD
ENDBRANCH   1   6
BRANCH   2  19
ATOM     19  C   UNL     1     -50.212  -1.311 -22.012  0.00  0.00    +0.000 A 
ATOM     20  C   UNL     1     -49.602  -0.099 -22.362  0.00  0.00    +0.000 A 
ATOM     21  C   UNL     1     -49.724   0.385 -23.666  0.00  0.00    +0.000 A 
ATOM     22  N   UNL     1     -50.422  -0.324 -24.593  0.00  0.00    +0.000 NA
ATOM     23  C   UNL     1     -51.011  -1.511 -24.285  0.00  0.00    +0.000 A 
ATOM     24  C   UNL     1     -51.758  -2.261 -25.328  0.00  0.00    +0.000 C 
ATOM     25  C   UNL     1     -50.910  -2.027 -22.992  0.00  0.00    +0.000 A 
ENDBRANCH   2  19
BRANCH   4  26
ATOM     26  C   UNL     1     -48.950  -4.365 -18.404  0.00  0.00    +0.000 C 
ATOM     27  C   UNL     1     -47.662  -4.015 -17.685  0.00  0.00    +0.000 C 
ATOM     28  C   UNL     1     -48.702  -5.495 -19.384  0.00  0.00    +0.000 C 
ENDBRANCH   4  26
TORSDOF 3
