REMARK  Name = ZINC000096181258 ZINC96181258 PubChem-97457130
REMARK  4 active torsions:
REMARK  status: ('A' for Active; 'I' for Inactive)
REMARK    1  A    between atoms: C_5  and  C_8
REMARK    2  A    between atoms: C_9  and  C_13
REMARK    3  A    between atoms: C_14  and  C_15
REMARK    4  A    between atoms: C_14  and  N_24
REMARK                            x       y       z     vdW  Elec       q    Type
REMARK                         _______ _______ _______ _____ _____    ______ ____
ROOT
ATOM      1  C   UNL     1     -50.157   0.206 -20.026  0.00  0.00    +0.000 C 
ATOM      2  C   UNL     1     -51.686   0.033 -19.952  0.00  0.00    +0.000 C 
ATOM      3  C   UNL     1     -51.986  -1.014 -18.870  0.00  0.00    +0.000 C 
ATOM      4  C   UNL     1     -50.643  -1.428 -18.421  0.00  0.00    +0.000 C 
ATOM      5  C   UNL     1     -48.207  -0.779 -18.682  0.00  0.00    +0.000 C 
ATOM      6  O   UNL     1     -50.441  -2.281 -17.517  0.00  0.00    +0.000 OA
ATOM      7  N   UNL     1     -49.600  -0.757 -19.095  0.00  0.00    +0.000 N 
ENDROOT
BRANCH   1  12
ATOM      8  C   UNL     1     -48.234  -0.650 -25.415  0.00  0.00    +0.000 C 
ATOM      9  C   UNL     1     -48.729  -0.439 -24.030  0.00  0.00    +0.000 A 
ATOM     10  C   UNL     1     -48.606   0.817 -23.429  0.00  0.00    +0.000 A 
ATOM     11  C   UNL     1     -49.071   1.017 -22.126  0.00  0.00    +0.000 A 
ATOM     12  C   UNL     1     -49.659  -0.037 -21.419  0.00  0.00    +0.000 A 
ATOM     13  C   UNL     1     -49.783  -1.296 -22.027  0.00  0.00    +0.000 A 
ATOM     14  C   UNL     1     -49.318  -1.495 -23.330  0.00  0.00    +0.000 A 
ENDBRANCH   1  12
BRANCH   2  15
ATOM     15  C   UNL     1     -52.345   1.332 -19.627  0.00  0.00    +0.000 C 
ATOM     16  O   UNL     1     -53.183   1.817 -20.433  0.00  0.00    +0.000 OA
ATOM     17  N   UNL     1     -52.022   2.019 -18.416  0.00  0.00    +0.000 NA
BRANCH  17  18
ATOM     18  C   UNL     1     -52.628   3.293 -18.067  0.00  0.00    +0.000 C 
BRANCH  18  19
ATOM     19  C   UNL     1     -52.079   3.769 -16.766  0.00  0.00    +0.000 A 
ATOM     20  C   UNL     1     -52.741   3.441 -15.578  0.00  0.00    +0.000 A 
ATOM     21  C   UNL     1     -52.226   3.860 -14.348  0.00  0.00    +0.000 A 
ATOM     22  C   UNL     1     -51.043   4.602 -14.302  0.00  0.00    +0.000 A 
ATOM     23  C   UNL     1     -50.373   4.925 -15.486  0.00  0.00    +0.000 A 
ATOM     24  C   UNL     1     -50.886   4.508 -16.718  0.00  0.00    +0.000 A 
ATOM     25  F   UNL     1     -50.223   4.824 -17.858  0.00  0.00    +0.000 F 
ENDBRANCH  18  19
ENDBRANCH  17  18
ENDBRANCH   2  15
TORSDOF 4
