REMARK  Name = ZINC000072238206 ZINC72238206 PubChem-95738335
REMARK  4 active torsions:
REMARK  status: ('A' for Active; 'I' for Inactive)
REMARK    1  A    between atoms: C_2  and  N_20
REMARK    2  A    between atoms: C_4  and  N_22
REMARK    3  A    between atoms: C_6  and  C_7
REMARK    4  A    between atoms: C_11  and  C_12
REMARK                            x       y       z     vdW  Elec       q    Type
REMARK                         _______ _______ _______ _____ _____    ______ ____
ROOT
ATOM      1  C   UNL     1     -51.895   0.388 -20.603  0.00  0.00    +0.000 C 
ATOM      2  C   UNL     1     -52.552  -0.951 -20.262  0.00  0.00    +0.000 C 
ATOM      3  C   UNL     1     -52.183  -1.423 -18.861  0.00  0.00    +0.000 C 
ATOM      4  C   UNL     1     -50.704  -1.376 -18.644  0.00  0.00    +0.000 C 
ATOM      5  C   UNL     1     -50.363   0.328 -20.497  0.00  0.00    +0.000 C 
ATOM      6  C   UNL     1     -48.537  -0.140 -18.843  0.00  0.00    +0.000 C 
ATOM      7  N   UNL     1     -49.898  -0.382 -19.300  0.00  0.00    +0.000 N 
ATOM      8  O   UNL     1     -50.180  -2.190 -17.837  0.00  0.00    +0.000 OA
ENDROOT
BRANCH   5   9
ATOM      9  C   UNL     1     -49.745  -0.243 -21.739  0.00  0.00    +0.000 A 
ATOM     10  C   UNL     1     -49.948  -1.583 -22.103  0.00  0.00    +0.000 A 
ATOM     11  C   UNL     1     -49.352  -2.095 -23.260  0.00  0.00    +0.000 A 
ATOM     12  C   UNL     1     -48.551  -1.271 -24.056  0.00  0.00    +0.000 A 
ATOM     13  C   UNL     1     -48.344   0.064 -23.694  0.00  0.00    +0.000 A 
ATOM     14  C   UNL     1     -48.939   0.575 -22.537  0.00  0.00    +0.000 A 
ATOM     15  C   UNL     1     -47.918  -1.814 -25.286  0.00  0.00    +0.000 C 
ENDBRANCH   5   9
BRANCH   1  16
ATOM     16  C   UNL     1     -52.472   1.524 -19.816  0.00  0.00    +0.000 C 
ATOM     17  N   UNL     1     -52.106   1.711 -18.442  0.00  0.00    +0.000 NA
ATOM     18  O   UNL     1     -53.295   2.296 -20.375  0.00  0.00    +0.000 OA
BRANCH  17  20
ATOM     19  C   UNL     1     -52.239   2.916 -16.269  0.00  0.00    +0.000 A 
ATOM     20  C   UNL     1     -52.595   2.749 -17.588  0.00  0.00    +0.000 A 
ATOM     21  C   UNL     1     -53.494   3.748 -17.913  0.00  0.00    +0.000 A 
ATOM     22  N   UNL     1     -52.916   3.998 -15.842  0.00  0.00    +0.000 N 
ATOM     23  N   UNL     1     -53.669   4.499 -16.808  0.00  0.00    +0.000 NA
BRANCH  22  25
ATOM     24  C   UNL     1     -51.494   5.096 -14.192  0.00  0.00    +0.000 C 
ATOM     25  C   UNL     1     -52.874   4.542 -14.495  0.00  0.00    +0.000 C 
ENDBRANCH  22  25
ENDBRANCH  17  20
ENDBRANCH   1  16
TORSDOF 4
