REMARK  Name = ZINC000012762430
REMARK  6 active torsions:
REMARK  status: ('A' for Active; 'I' for Inactive)
REMARK    1  A    between atoms: C_1  and  C_15
REMARK    2  A    between atoms: C_9  and  S_27
REMARK    3  A    between atoms: N_13  and  C_17
REMARK    4  A    between atoms: C_17  and  C_21
REMARK    5  A    between atoms: C_18  and  C_26
REMARK    6  A    between atoms: S_27  and  N_30
REMARK                            x       y       z     vdW  Elec       q    Type
REMARK                         _______ _______ _______ _____ _____    ______ ____
ROOT
ATOM      1  C   UNL     1     -50.999  -0.131 -18.977  0.00  0.00    +0.000 A 
ATOM      2  C   UNL     1     -51.925   0.214 -19.969  0.00  0.00    +0.000 A 
ATOM      3  C   UNL     1     -52.674   1.386 -19.858  0.00  0.00    +0.000 A 
ATOM      4  O   UNL     1     -53.501   1.688 -20.757  0.00  0.00    +0.000 OA
ATOM      5  N   UNL     1     -52.515   2.198 -18.781  0.00  0.00    +0.000 N 
ATOM      6  C   UNL     1     -51.632   1.904 -17.791  0.00  0.00    +0.000 A 
ATOM      7  C   UNL     1     -51.501   2.770 -16.702  0.00  0.00    +0.000 A 
ATOM      8  C   UNL     1     -50.591   2.481 -15.682  0.00  0.00    +0.000 A 
ATOM      9  C   UNL     1     -49.804   1.326 -15.748  0.00  0.00    +0.000 A 
ATOM     10  C   UNL     1     -49.934   0.457 -16.835  0.00  0.00    +0.000 A 
ATOM     11  C   UNL     1     -50.848   0.727 -17.864  0.00  0.00    +0.000 A 
ATOM     12  H   UNL     1     -53.053   3.020 -18.717  0.00  0.00    +0.000 HD
ENDROOT
BRANCH   1  15
ATOM     13  N   UNL     1     -49.429  -1.697 -20.248  0.00  0.00    +0.000 N 
ATOM     14  C   UNL     1     -48.893  -3.039 -20.426  0.00  0.00    +0.000 C 
ATOM     15  C   UNL     1     -50.255  -1.410 -19.104  0.00  0.00    +0.000 C 
ATOM     16  O   UNL     1     -50.372  -2.277 -18.195  0.00  0.00    +0.000 OA
BRANCH  13  17
ATOM     17  C   UNL     1     -48.911  -0.627 -21.095  0.00  0.00    +0.000 C 
BRANCH  17  21
ATOM     18  C   UNL     1     -50.843  -1.105 -24.041  0.00  0.00    +0.000 A 
ATOM     19  C   UNL     1     -50.753   0.274 -24.116  0.00  0.00    +0.000 A 
ATOM     20  C   UNL     1     -50.001   0.653 -23.015  0.00  0.00    +0.000 A 
ATOM     21  C   UNL     1     -49.699  -0.525 -22.359  0.00  0.00    +0.000 A 
ATOM     22  O   UNL     1     -50.214  -1.553 -22.983  0.00  0.00    +0.000 OA
BRANCH  18  26
ATOM     23  C   UNL     1     -49.278  -2.198 -26.161  0.00  0.00    +0.000 C 
ATOM     24  C   UNL     1     -50.761  -2.547 -26.170  0.00  0.00    +0.000 C 
ATOM     25  C   UNL     1     -51.065  -3.403 -24.959  0.00  0.00    +0.000 C 
ATOM     26  C   UNL     1     -51.591  -1.981 -25.005  0.00  0.00    +0.000 C 
ENDBRANCH  18  26
ENDBRANCH  17  21
ENDBRANCH  13  17
ENDBRANCH   1  15
BRANCH   9  27
ATOM     27  S   UNL     1     -48.665   0.957 -14.460  0.00  0.00    +0.000 S 
ATOM     28  O   UNL     1     -47.320   0.656 -15.061  0.00  0.00    +0.000 OA
ATOM     29  O   UNL     1     -48.524   2.154 -13.562  0.00  0.00    +0.000 OA
BRANCH  27  30
ATOM     30  N   UNL     1     -49.200  -0.403 -13.525  0.00  0.00    +0.000 NA
ATOM     31  C   UNL     1     -50.651  -0.290 -13.358  0.00  0.00    +0.000 C 
ATOM     32  C   UNL     1     -51.194  -1.567 -12.713  0.00  0.00    +0.000 C 
ATOM     33  O   UNL     1     -50.928  -2.670 -13.547  0.00  0.00    +0.000 OA
ATOM     34  C   UNL     1     -49.531  -2.828 -13.588  0.00  0.00    +0.000 C 
ATOM     35  C   UNL     1     -48.892  -1.621 -14.279  0.00  0.00    +0.000 C 
ENDBRANCH  27  30
ENDBRANCH   9  27
TORSDOF 6
