REMARK  Name = ZINC000031809867
REMARK  2 active torsions:
REMARK  status: ('A' for Active; 'I' for Inactive)
REMARK    1  A    between atoms: C_7  and  C_24
REMARK    2  A    between atoms: C_28  and  O_29
REMARK                            x       y       z     vdW  Elec       q    Type
REMARK                         _______ _______ _______ _____ _____    ______ ____
ROOT
ATOM      1  C   UNL     1     -47.329  -1.525 -23.342  0.00  0.00    +0.000 C 
ATOM      2  C   UNL     1     -48.242  -1.331 -22.181  0.00  0.00    +0.000 A 
ATOM      3  N   UNL     1     -49.153  -0.344 -22.112  0.00  0.00    +0.000 NA
ATOM      4  N   UNL     1     -49.791  -0.469 -20.960  0.00  0.00    +0.000 N 
ATOM      5  C   UNL     1     -49.326  -1.550 -20.294  0.00  0.00    +0.000 A 
ATOM      6  C   UNL     1     -48.303  -2.124 -21.048  0.00  0.00    +0.000 A 
ATOM      7  C   UNL     1     -47.468  -3.354 -20.826  0.00  0.00    +0.000 C 
ATOM      8  S   UNL     1     -47.107  -3.729 -19.082  0.00  0.00    +0.000 S 
ATOM      9  C   UNL     1     -48.798  -4.283 -18.760  0.00  0.00    +0.000 C 
ATOM     10  C   UNL     1     -49.616  -3.152 -18.259  0.00  0.00    +0.000 C 
ATOM     11  O   UNL     1     -50.128  -3.246 -17.114  0.00  0.00    +0.000 OA
ATOM     12  N   UNL     1     -49.879  -1.981 -19.038  0.00  0.00    +0.000 N 
ATOM     13  H   UNL     1     -50.547  -1.371 -18.651  0.00  0.00    +0.000 HD
ATOM     14  C   UNL     1     -50.858   0.408 -20.570  0.00  0.00    +0.000 A 
ATOM     15  N   UNL     1     -51.793   0.799 -21.487  0.00  0.00    +0.000 NA
ATOM     16  C   UNL     1     -52.808   1.660 -21.154  0.00  0.00    +0.000 A 
ATOM     17  N   UNL     1     -52.902   2.164 -19.888  0.00  0.00    +0.000 NA
ATOM     18  C   UNL     1     -51.968   1.789 -18.981  0.00  0.00    +0.000 A 
ATOM     19  N   UNL     1     -51.863   2.220 -17.719  0.00  0.00    +0.000 N 
ATOM     20  C   UNL     1     -50.737   1.590 -17.286  0.00  0.00    +0.000 A 
ATOM     21  N   UNL     1     -50.150   0.802 -18.228  0.00  0.00    +0.000 NA
ATOM     22  C   UNL     1     -50.962   0.942 -19.285  0.00  0.00    +0.000 A 
ATOM     23  H   UNL     1     -52.452   2.837 -17.227  0.00  0.00    +0.000 HD
ENDROOT
BRANCH   7  24
ATOM     24  C   UNL     1     -47.891  -4.553 -21.631  0.00  0.00    +0.000 A 
ATOM     25  C   UNL     1     -47.014  -5.637 -21.747  0.00  0.00    +0.000 A 
ATOM     26  C   UNL     1     -47.384  -6.768 -22.480  0.00  0.00    +0.000 A 
ATOM     27  C   UNL     1     -48.636  -6.822 -23.098  0.00  0.00    +0.000 A 
ATOM     28  C   UNL     1     -49.519  -5.745 -22.983  0.00  0.00    +0.000 A 
ATOM     29  C   UNL     1     -49.149  -4.614 -22.251  0.00  0.00    +0.000 A 
BRANCH  28  30
ATOM     30  O   UNL     1     -50.763  -5.799 -23.596  0.00  0.00    +0.000 OA
ATOM     31  H   UNL     1     -51.011  -6.557 -24.087  0.00  0.00    +0.000 HD
ENDBRANCH  28  30
ENDBRANCH   7  24
TORSDOF 2
