REMARK  Name = ZINC000008996339
REMARK  4 active torsions:
REMARK  status: ('A' for Active; 'I' for Inactive)
REMARK    1  A    between atoms: C_4  and  O_5
REMARK    2  A    between atoms: C_6  and  C_22
REMARK    3  A    between atoms: C_7  and  C_9
REMARK    4  A    between atoms: C_22  and  C_24
REMARK                            x       y       z     vdW  Elec       q    Type
REMARK                         _______ _______ _______ _____ _____    ______ ____
ROOT
ATOM      1  N   UNL     1     -47.746  -3.655 -18.317  0.00  0.00    +0.000 N 
ATOM      2  C   UNL     1     -46.891  -3.164 -17.297  0.00  0.00    +0.000 C 
ATOM      3  O   UNL     1     -46.082  -3.870 -16.639  0.00  0.00    +0.000 OA
ATOM      4  C   UNL     1     -47.104  -1.751 -17.123  0.00  0.00    +0.000 C 
ATOM      5  C   UNL     1     -48.047  -1.349 -17.976  0.00  0.00    +0.000 C 
ATOM      6  C   UNL     1     -48.518  -2.518 -18.825  0.00  0.00    +0.000 C 
ATOM      7  C   UNL     1     -47.498  -8.112 -20.467  0.00  0.00    +0.000 C 
ATOM      8  C   UNL     1     -47.840  -6.956 -19.598  0.00  0.00    +0.000 A 
ATOM      9  C   UNL     1     -47.288  -5.693 -19.692  0.00  0.00    +0.000 A 
ATOM     10  C   UNL     1     -47.947  -5.031 -18.670  0.00  0.00    +0.000 A 
ATOM     11  N   UNL     1     -48.811  -5.846 -18.036  0.00  0.00    +0.000 NA
ATOM     12  O   UNL     1     -48.717  -7.000 -18.624  0.00  0.00    +0.000 OA
ENDROOT
BRANCH   6  13
ATOM     13  C   UNL     1     -48.225  -2.293 -20.283  0.00  0.00    +0.000 A 
ATOM     14  C   UNL     1     -49.217  -2.575 -21.229  0.00  0.00    +0.000 A 
ATOM     15  C   UNL     1     -48.966  -2.385 -22.590  0.00  0.00    +0.000 A 
ATOM     16  C   UNL     1     -47.719  -1.916 -23.012  0.00  0.00    +0.000 A 
ATOM     17  C   UNL     1     -47.453  -1.713 -24.460  0.00  0.00    +0.000 C 
ATOM     18  C   UNL     1     -46.721  -1.640 -22.073  0.00  0.00    +0.000 A 
ATOM     19  C   UNL     1     -46.971  -1.830 -20.712  0.00  0.00    +0.000 A 
ENDBRANCH   6  13
BRANCH   4  20
ATOM     20  O   UNL     1     -46.447  -0.948 -16.198  0.00  0.00    +0.000 OA
ATOM     21  H   UNL     1     -45.795  -1.318 -15.636  0.00  0.00    +0.000 HD
ENDBRANCH   4  20
BRANCH   5  22
ATOM     22  C   UNL     1     -48.556   0.038 -18.076  0.00  0.00    +0.000 C 
ATOM     23  O   UNL     1     -48.118   0.922 -17.291  0.00  0.00    +0.000 OA
BRANCH  22  24
ATOM     24  C   UNL     1     -49.567   0.416 -19.079  0.00  0.00    +0.000 A 
ATOM     25  C   UNL     1     -49.285   0.703 -20.418  0.00  0.00    +0.000 A 
ATOM     26  C   UNL     1     -50.529   0.995 -20.935  0.00  0.00    +0.000 A 
ATOM     27  C   UNL     1     -50.899   1.354 -22.229  0.00  0.00    +0.000 A 
ATOM     28  C   UNL     1     -52.263   1.596 -22.472  0.00  0.00    +0.000 A 
ATOM     29  C   UNL     1     -53.210   1.475 -21.432  0.00  0.00    +0.000 A 
ATOM     30  C   UNL     1     -52.805   1.111 -20.135  0.00  0.00    +0.000 A 
ATOM     31  C   UNL     1     -51.447   0.879 -19.928  0.00  0.00    +0.000 A 
ATOM     32  O   UNL     1     -50.856   0.533 -18.817  0.00  0.00    +0.000 OA
ENDBRANCH  22  24
ENDBRANCH   5  22
TORSDOF 4
