REMARK  Name = ZINC000031806781
REMARK  3 active torsions:
REMARK  status: ('A' for Active; 'I' for Inactive)
REMARK    1  A    between atoms: C_1  and  C_28
REMARK    2  A    between atoms: C_24  and  O_31
REMARK    3  A    between atoms: C_27  and  O_32
REMARK                            x       y       z     vdW  Elec       q    Type
REMARK                         _______ _______ _______ _____ _____    ______ ____
ROOT
ATOM      1  C   UNL     1     -47.620  -3.087 -21.698  0.00  0.00    +0.000 C 
ATOM      2  S   UNL     1     -47.330  -3.389 -19.927  0.00  0.00    +0.000 S 
ATOM      3  C   UNL     1     -49.005  -4.009 -19.665  0.00  0.00    +0.000 C 
ATOM      4  C   UNL     1     -49.885  -2.898 -19.230  0.00  0.00    +0.000 C 
ATOM      5  O   UNL     1     -50.435  -2.976 -18.102  0.00  0.00    +0.000 OA
ATOM      6  N   UNL     1     -50.155  -1.758 -20.052  0.00  0.00    +0.000 N 
ATOM      7  C   UNL     1     -49.599  -1.374 -21.322  0.00  0.00    +0.000 A 
ATOM      8  C   UNL     1     -48.550  -1.953 -22.034  0.00  0.00    +0.000 A 
ATOM      9  C   UNL     1     -48.511  -1.230 -23.215  0.00  0.00    +0.000 A 
ATOM     10  C   UNL     1     -47.568  -1.444 -24.347  0.00  0.00    +0.000 C 
ATOM     11  N   UNL     1     -49.467  -0.284 -23.216  0.00  0.00    +0.000 NA
ATOM     12  N   UNL     1     -50.109  -0.363 -22.062  0.00  0.00    +0.000 N 
ATOM     13  H   UNL     1     -50.829  -1.139 -19.691  0.00  0.00    +0.000 HD
ATOM     14  C   UNL     1     -51.222   0.483 -21.739  0.00  0.00    +0.000 A 
ATOM     15  N   UNL     1     -52.101   0.862 -22.716  0.00  0.00    +0.000 NA
ATOM     16  C   UNL     1     -53.158   1.692 -22.448  0.00  0.00    +0.000 A 
ATOM     17  N   UNL     1     -53.354   2.180 -21.186  0.00  0.00    +0.000 NA
ATOM     18  C   UNL     1     -52.477   1.817 -20.220  0.00  0.00    +0.000 A 
ATOM     19  N   UNL     1     -52.472   2.236 -18.949  0.00  0.00    +0.000 N 
ATOM     20  C   UNL     1     -51.363   1.629 -18.444  0.00  0.00    +0.000 A 
ATOM     21  N   UNL     1     -50.692   0.866 -19.350  0.00  0.00    +0.000 NA
ATOM     22  C   UNL     1     -51.431   0.999 -20.460  0.00  0.00    +0.000 A 
ATOM     23  H   UNL     1     -53.110   2.833 -18.494  0.00  0.00    +0.000 HD
ENDROOT
BRANCH   1  28
ATOM     24  C   UNL     1     -46.676  -6.163 -23.700  0.00  0.00    +0.000 A 
ATOM     25  C   UNL     1     -47.920  -6.699 -24.035  0.00  0.00    +0.000 A 
ATOM     26  C   UNL     1     -49.093  -6.068 -23.619  0.00  0.00    +0.000 A 
ATOM     27  C   UNL     1     -49.042  -4.886 -22.861  0.00  0.00    +0.000 A 
ATOM     28  C   UNL     1     -47.784  -4.338 -22.523  0.00  0.00    +0.000 A 
ATOM     29  C   UNL     1     -46.616  -4.984 -22.944  0.00  0.00    +0.000 A 
BRANCH  24  31
ATOM     30  C   UNL     1     -44.416  -7.071 -23.270  0.00  0.00    +0.000 C 
ATOM     31  O   UNL     1     -45.519  -6.819 -24.130  0.00  0.00    +0.000 OA
ENDBRANCH  24  31
BRANCH  27  32
ATOM     32  O   UNL     1     -50.221  -4.254 -22.448  0.00  0.00    +0.000 OA
ATOM     33  C   UNL     1     -51.299  -3.975 -23.331  0.00  0.00    +0.000 C 
ENDBRANCH  27  32
ENDBRANCH   1  28
TORSDOF 3
