REMARK  Name = ZINC000409246055 PubChem-126252235
REMARK  6 active torsions:
REMARK  status: ('A' for Active; 'I' for Inactive)
REMARK    1  A    between atoms: N_1  and  C_32
REMARK    2  A    between atoms: C_8  and  C_12
REMARK    3  A    between atoms: N_19  and  C_21
REMARK    4  A    between atoms: C_21  and  C_22
REMARK    5  A    between atoms: C_29  and  O_36
REMARK    6  A    between atoms: C_33  and  O_37
REMARK                            x       y       z     vdW  Elec       q    Type
REMARK                         _______ _______ _______ _____ _____    ______ ____
ROOT
ATOM      1  N   UNL     1     -50.490   0.668 -18.376  0.00  0.00    +0.000 N 
ATOM      2  C   UNL     1     -51.477   1.530 -17.773  0.00  0.00    +0.000 C 
ATOM      3  O   UNL     1     -51.563   1.630 -16.520  0.00  0.00    +0.000 OA
ATOM      4  N   UNL     1     -52.378   2.277 -18.593  0.00  0.00    +0.000 N 
ATOM      5  C   UNL     1     -52.398   2.119 -20.011  0.00  0.00    +0.000 C 
ATOM      6  O   UNL     1     -53.224   2.782 -20.694  0.00  0.00    +0.000 OA
ATOM      7  C   UNL     1     -51.477   1.165 -20.656  0.00  0.00    +0.000 C 
ATOM      8  C   UNL     1     -51.649   0.882 -21.959  0.00  0.00    +0.000 C 
ATOM      9  C   UNL     1     -50.393   0.601 -19.813  0.00  0.00    +0.000 C 
ATOM     10  O   UNL     1     -49.345   0.143 -20.346  0.00  0.00    +0.000 OA
ATOM     11  H   UNL     1     -52.998   2.914 -18.170  0.00  0.00    +0.000 HD
ENDROOT
BRANCH   8  12
ATOM     12  C   UNL     1     -50.969  -0.156 -22.752  0.00  0.00    +0.000 A 
ATOM     13  C   UNL     1     -51.393  -1.507 -22.714  0.00  0.00    +0.000 A 
ATOM     14  C   UNL     1     -50.786  -2.477 -23.529  0.00  0.00    +0.000 A 
ATOM     15  C   UNL     1     -49.769  -2.052 -24.383  0.00  0.00    +0.000 A 
ATOM     16  C   UNL     1     -49.373  -0.746 -24.444  0.00  0.00    +0.000 A 
ATOM     17  C   UNL     1     -48.362  -0.641 -25.380  0.00  0.00    +0.000 A 
ATOM     18  C   UNL     1     -48.188  -1.945 -25.857  0.00  0.00    +0.000 A 
ATOM     19  N   UNL     1     -49.054  -2.787 -25.246  0.00  0.00    +0.000 N 
ATOM     20  C   UNL     1     -49.959   0.236 -23.650  0.00  0.00    +0.000 A 
BRANCH  19  21
ATOM     21  C   UNL     1     -49.139  -4.225 -25.459  0.00  0.00    +0.000 C 
BRANCH  21  22
ATOM     22  C   UNL     1     -48.328  -4.947 -24.437  0.00  0.00    +0.000 A 
ATOM     23  C   UNL     1     -48.886  -5.261 -23.193  0.00  0.00    +0.000 A 
ATOM     24  C   UNL     1     -48.115  -5.911 -22.224  0.00  0.00    +0.000 A 
ATOM     25  C   UNL     1     -46.785  -6.243 -22.496  0.00  0.00    +0.000 A 
ATOM     26  C   UNL     1     -46.224  -5.925 -23.737  0.00  0.00    +0.000 A 
ATOM     27  F   UNL     1     -44.933  -6.243 -23.998  0.00  0.00    +0.000 F 
ATOM     28  C   UNL     1     -46.994  -5.275 -24.706  0.00  0.00    +0.000 A 
ENDBRANCH  21  22
ENDBRANCH  19  21
ENDBRANCH   8  12
BRANCH   1  32
ATOM     29  C   UNL     1     -47.717  -1.480 -15.965  0.00  0.00    +0.000 A 
ATOM     30  C   UNL     1     -47.697  -0.078 -15.999  0.00  0.00    +0.000 A 
ATOM     31  C   UNL     1     -48.613   0.619 -16.789  0.00  0.00    +0.000 A 
ATOM     32  C   UNL     1     -49.565  -0.070 -17.555  0.00  0.00    +0.000 A 
ATOM     33  C   UNL     1     -49.595  -1.479 -17.519  0.00  0.00    +0.000 A 
ATOM     34  C   UNL     1     -48.666  -2.170 -16.724  0.00  0.00    +0.000 A 
BRANCH  29  36
ATOM     35  C   UNL     1     -45.424  -1.909 -15.144  0.00  0.00    +0.000 C 
ATOM     36  O   UNL     1     -46.813  -2.207 -15.187  0.00  0.00    +0.000 OA
ENDBRANCH  29  36
BRANCH  33  37
ATOM     37  O   UNL     1     -50.557  -2.170 -18.266  0.00  0.00    +0.000 OA
ATOM     38  C   UNL     1     -50.220  -3.075 -19.308  0.00  0.00    +0.000 C 
ENDBRANCH  33  37
ENDBRANCH   1  32
TORSDOF 6
