REMARK  Name = ZINC000065211166 MolPort-010-919-017
REMARK  6 active torsions:
REMARK  status: ('A' for Active; 'I' for Inactive)
REMARK    1  A    between atoms: C_3  and  C_4
REMARK    2  A    between atoms: C_5  and  S_27
REMARK    3  A    between atoms: C_6  and  C_7
REMARK    4  A    between atoms: C_6  and  S_27
REMARK    5  A    between atoms: C_8  and  C_9
REMARK    6  A    between atoms: C_8  and  N_23
REMARK                            x       y       z     vdW  Elec       q    Type
REMARK                         _______ _______ _______ _____ _____    ______ ____
ROOT
ATOM      1  C   UNL     1     -51.863   0.094 -19.314  0.00  0.00    +0.000 C 
ENDROOT
BRANCH   1   2
ATOM      2  C   UNL     1     -52.397   1.483 -19.315  0.00  0.00    +0.000 C 
ATOM      3  N   UNL     1     -52.347   2.264 -18.120  0.00  0.00    +0.000 NA
ATOM      4  O   UNL     1     -52.896   1.956 -20.370  0.00  0.00    +0.000 OA
BRANCH   3   5
ATOM      5  C   UNL     1     -52.834   3.633 -18.073  0.00  0.00    +0.000 C 
BRANCH   5   6
ATOM      6  C   UNL     1     -52.626   4.195 -16.699  0.00  0.00    +0.000 A 
ATOM      7  C   UNL     1     -51.402   4.807 -16.358  0.00  0.00    +0.000 A 
ATOM      8  C   UNL     1     -50.293   4.943 -17.348  0.00  0.00    +0.000 C 
ATOM      9  C   UNL     1     -51.206   5.305 -15.067  0.00  0.00    +0.000 A 
ATOM     10  C   UNL     1     -52.215   5.196 -14.109  0.00  0.00    +0.000 A 
ATOM     11  C   UNL     1     -51.999   5.728 -12.738  0.00  0.00    +0.000 C 
ATOM     12  C   UNL     1     -53.426   4.585 -14.437  0.00  0.00    +0.000 A 
ATOM     13  C   UNL     1     -53.638   4.082 -15.723  0.00  0.00    +0.000 A 
ATOM     14  C   UNL     1     -54.947   3.434 -16.027  0.00  0.00    +0.000 C 
ENDBRANCH   5   6
ENDBRANCH   3   5
ENDBRANCH   1   2
BRANCH   1  15
ATOM     15  S   UNL     1     -50.078   0.115 -18.974  0.00  0.00    +0.000 S 
BRANCH  15  17
ATOM     16  C   UNL     1     -49.617  -2.302 -20.375  0.00  0.00    +0.000 A 
ATOM     17  C   UNL     1     -49.941  -1.666 -19.149  0.00  0.00    +0.000 A 
ATOM     18  C   UNL     1     -50.022  -3.772 -18.038  0.00  0.00    +0.000 A 
ATOM     19  C   UNL     1     -49.704  -4.439 -19.217  0.00  0.00    +0.000 A 
ATOM     20  C   UNL     1     -49.502  -3.699 -20.380  0.00  0.00    +0.000 A 
ATOM     21  N   UNL     1     -50.130  -2.419 -18.031  0.00  0.00    +0.000 NA
BRANCH  16  24
ATOM     22  C   UNL     1     -48.450  -1.313 -25.057  0.00  0.00    +0.000 C 
ATOM     23  C   UNL     1     -48.888  -1.181 -23.643  0.00  0.00    +0.000 A 
ATOM     24  C   UNL     1     -49.382  -1.587 -21.654  0.00  0.00    +0.000 A 
ATOM     25  N   UNL     1     -48.937  -2.204 -22.772  0.00  0.00    +0.000 NA
ATOM     26  N   UNL     1     -49.591  -0.270 -21.854  0.00  0.00    +0.000 NA
ATOM     27  O   UNL     1     -49.273  -0.058 -23.094  0.00  0.00    +0.000 OA
ENDBRANCH  16  24
ENDBRANCH  15  17
ENDBRANCH   1  15
TORSDOF 6
