REMARK  Name = ZINC000096114852
REMARK  11 active torsions:
REMARK  status: ('A' for Active; 'I' for Inactive)
REMARK    1  A    between atoms: C_1  and  C_28
REMARK    2  A    between atoms: C_2  and  O_3
REMARK    3  A    between atoms: C_5  and  O_6
REMARK    4  A    between atoms: C_10  and  O_11
REMARK    5  A    between atoms: C_12  and  C_18
REMARK    6  A    between atoms: C_21  and  O_22
REMARK    7  A    between atoms: C_23  and  O_24
REMARK    8  A    between atoms: C_28  and  C_29
REMARK    9  A    between atoms: C_28  and  C_36
REMARK   10  A    between atoms: C_36  and  C_37
REMARK   11  A    between atoms: C_37  and  O_40
REMARK                            x       y       z     vdW  Elec       q    Type
REMARK                         _______ _______ _______ _____ _____    ______ ____
ROOT
ATOM      1  C   UNL     1     -49.669  -4.769 -22.676  0.00  0.00    +0.000 A 
ATOM      2  C   UNL     1     -49.172  -6.072 -22.843  0.00  0.00    +0.000 A 
ATOM      3  C   UNL     1     -48.706  -6.796 -21.748  0.00  0.00    +0.000 A 
ATOM      4  C   UNL     1     -48.725  -6.247 -20.468  0.00  0.00    +0.000 A 
ATOM      5  C   UNL     1     -49.233  -4.945 -20.267  0.00  0.00    +0.000 A 
ATOM      6  C   UNL     1     -49.304  -4.340 -18.995  0.00  0.00    +0.000 A 
ATOM      7  O   UNL     1     -48.903  -4.943 -17.962  0.00  0.00    +0.000 OA
ATOM      8  C   UNL     1     -49.840  -3.055 -18.868  0.00  0.00    +0.000 A 
ATOM      9  C   UNL     1     -50.301  -2.385 -20.020  0.00  0.00    +0.000 A 
ATOM     10  O   UNL     1     -50.216  -2.992 -21.201  0.00  0.00    +0.000 OA
ATOM     11  C   UNL     1     -49.711  -4.208 -21.379  0.00  0.00    +0.000 A 
ENDROOT
BRANCH   9  12
ATOM     12  C   UNL     1     -50.892  -1.022 -19.984  0.00  0.00    +0.000 A 
ATOM     13  C   UNL     1     -51.151  -0.359 -21.194  0.00  0.00    +0.000 A 
ATOM     14  C   UNL     1     -51.685   0.933 -21.200  0.00  0.00    +0.000 A 
ATOM     15  C   UNL     1     -51.962   1.582 -19.995  0.00  0.00    +0.000 A 
ATOM     16  C   UNL     1     -51.704   0.936 -18.780  0.00  0.00    +0.000 A 
ATOM     17  C   UNL     1     -51.171  -0.357 -18.779  0.00  0.00    +0.000 A 
BRANCH  15  18
ATOM     18  O   UNL     1     -52.487   2.868 -20.010  0.00  0.00    +0.000 OA
ATOM     19  H   UNL     1     -52.658   3.295 -20.826  0.00  0.00    +0.000 HD
ENDBRANCH  15  18
BRANCH  16  20
ATOM     20  O   UNL     1     -51.966   1.573 -17.575  0.00  0.00    +0.000 OA
ATOM     21  H   UNL     1     -52.323   2.440 -17.571  0.00  0.00    +0.000 HD
ENDBRANCH  16  20
ENDBRANCH   9  12
BRANCH   8  22
ATOM     22  O   UNL     1     -49.925  -2.474 -17.605  0.00  0.00    +0.000 OA
ATOM     23  H   UNL     1     -49.612  -2.938 -16.854  0.00  0.00    +0.000 HD
ENDBRANCH   8  22
BRANCH   4  24
ATOM     24  O   UNL     1     -48.240  -7.013 -19.413  0.00  0.00    +0.000 OA
ATOM     25  H   UNL     1     -47.908  -7.875 -19.574  0.00  0.00    +0.000 HD
ENDBRANCH   4  24
BRANCH   2  26
ATOM     26  O   UNL     1     -49.130  -6.657 -24.104  0.00  0.00    +0.000 OA
ATOM     27  H   UNL     1     -49.439  -6.183 -24.851  0.00  0.00    +0.000 HD
ENDBRANCH   2  26
BRANCH   1  28
ATOM     28  C   UNL     1     -50.130  -4.020 -23.903  0.00  0.00    +0.000 C 
BRANCH  28  29
ATOM     29  C   UNL     1     -49.021  -3.377 -24.689  0.00  0.00    +0.000 A 
ATOM     30  C   UNL     1     -48.725  -3.904 -25.952  0.00  0.00    +0.000 A 
ATOM     31  C   UNL     1     -47.705  -3.355 -26.732  0.00  0.00    +0.000 A 
ATOM     32  C   UNL     1     -46.971  -2.268 -26.253  0.00  0.00    +0.000 A 
ATOM     33  C   UNL     1     -47.254  -1.735 -24.993  0.00  0.00    +0.000 A 
ATOM     34  C   UNL     1     -48.272  -2.284 -24.208  0.00  0.00    +0.000 A 
ATOM     35  F   UNL     1     -48.534  -1.731 -23.000  0.00  0.00    +0.000 F 
ENDBRANCH  28  29
BRANCH  28  36
ATOM     36  C   UNL     1     -51.379  -3.160 -23.721  0.00  0.00    +0.000 C 
BRANCH  36  37
ATOM     37  C   UNL     1     -51.597  -2.300 -24.924  0.00  0.00    +0.000 C 
ATOM     38  O   UNL     1     -52.040  -2.825 -25.980  0.00  0.00    +0.000 OA
BRANCH  37  40
ATOM     39  C   UNL     1     -50.536  -0.310 -25.935  0.00  0.00    +0.000 C 
ATOM     40  O   UNL     1     -51.300  -0.935 -24.914  0.00  0.00    +0.000 OA
ENDBRANCH  37  40
ENDBRANCH  36  37
ENDBRANCH  28  36
ENDBRANCH   1  28
TORSDOF 11
