REMARK  Name = ZINC000031809026
REMARK  1 active torsions:
REMARK  status: ('A' for Active; 'I' for Inactive)
REMARK    1  A    between atoms: C_7  and  C_24
REMARK                            x       y       z     vdW  Elec       q    Type
REMARK                         _______ _______ _______ _____ _____    ______ ____
ROOT
ATOM      1  C   UNL     1     -47.936  -1.766 -23.696  0.00  0.00    +0.000 C 
ATOM      2  C   UNL     1     -48.798  -1.577 -22.496  0.00  0.00    +0.000 A 
ATOM      3  N   UNL     1     -49.621  -0.523 -22.362  0.00  0.00    +0.000 NA
ATOM      4  N   UNL     1     -50.202  -0.610 -21.181  0.00  0.00    +0.000 N 
ATOM      5  C   UNL     1     -49.761  -1.712 -20.533  0.00  0.00    +0.000 A 
ATOM      6  C   UNL     1     -48.870  -2.402 -21.369  0.00  0.00    +0.000 A 
ATOM      7  C   UNL     1     -48.072  -3.681 -21.151  0.00  0.00    +0.000 C 
ATOM      8  S   UNL     1     -48.705  -4.795 -19.860  0.00  0.00    +0.000 S 
ATOM      9  C   UNL     1     -48.366  -3.625 -18.530  0.00  0.00    +0.000 C 
ATOM     10  C   UNL     1     -49.635  -2.914 -18.256  0.00  0.00    +0.000 C 
ATOM     11  O   UNL     1     -50.200  -3.082 -17.147  0.00  0.00    +0.000 OA
ATOM     12  N   UNL     1     -50.261  -2.089 -19.240  0.00  0.00    +0.000 N 
ATOM     13  H   UNL     1     -51.147  -1.734 -19.002  0.00  0.00    +0.000 HD
ATOM     14  C   UNL     1     -51.146   0.365 -20.714  0.00  0.00    +0.000 A 
ATOM     15  N   UNL     1     -52.091   0.864 -21.568  0.00  0.00    +0.000 NA
ATOM     16  C   UNL     1     -52.974   1.834 -21.175  0.00  0.00    +0.000 A 
ATOM     17  N   UNL     1     -52.928   2.341 -19.906  0.00  0.00    +0.000 NA
ATOM     18  C   UNL     1     -51.998   1.845 -19.056  0.00  0.00    +0.000 A 
ATOM     19  N   UNL     1     -51.749   2.270 -17.812  0.00  0.00    +0.000 N 
ATOM     20  C   UNL     1     -50.678   1.512 -17.451  0.00  0.00    +0.000 A 
ATOM     21  N   UNL     1     -50.252   0.660 -18.422  0.00  0.00    +0.000 NA
ATOM     22  C   UNL     1     -51.115   0.889 -19.422  0.00  0.00    +0.000 A 
ATOM     23  H   UNL     1     -52.222   2.957 -17.289  0.00  0.00    +0.000 HD
ENDROOT
BRANCH   7  24
ATOM     24  C   UNL     1     -47.896  -4.492 -22.410  0.00  0.00    +0.000 A 
ATOM     25  C   UNL     1     -46.587  -4.811 -22.805  0.00  0.00    +0.000 A 
ATOM     26  C   UNL     1     -46.358  -5.575 -23.951  0.00  0.00    +0.000 A 
ATOM     27  C   UNL     1     -47.432  -6.032 -24.716  0.00  0.00    +0.000 A 
ATOM     28  F   UNL     1     -47.207  -6.766 -25.831  0.00  0.00    +0.000 F 
ATOM     29  C   UNL     1     -48.737  -5.718 -24.338  0.00  0.00    +0.000 A 
ATOM     30  C   UNL     1     -48.983  -4.954 -23.194  0.00  0.00    +0.000 A 
ATOM     31 CL   UNL     1     -50.659  -4.604 -22.796  0.00  0.00    +0.000 Cl
ENDBRANCH   7  24
TORSDOF 1
