REMARK  Name = ZINC000031809732
REMARK  3 active torsions:
REMARK  status: ('A' for Active; 'I' for Inactive)
REMARK    1  A    between atoms: C_1  and  C_26
REMARK    2  A    between atoms: C_24  and  O_33
REMARK    3  A    between atoms: C_29  and  O_30
REMARK                            x       y       z     vdW  Elec       q    Type
REMARK                         _______ _______ _______ _____ _____    ______ ____
ROOT
ATOM      1  C   UNL     1     -48.374  -3.263 -22.177  0.00  0.00    +0.000 C 
ATOM      2  S   UNL     1     -49.151  -4.590 -21.213  0.00  0.00    +0.000 S 
ATOM      3  C   UNL     1     -48.578  -3.797 -19.701  0.00  0.00    +0.000 C 
ATOM      4  C   UNL     1     -49.668  -2.951 -19.161  0.00  0.00    +0.000 C 
ATOM      5  O   UNL     1     -50.100  -3.193 -18.004  0.00  0.00    +0.000 OA
ATOM      6  N   UNL     1     -50.239  -1.866 -19.899  0.00  0.00    +0.000 N 
ATOM      7  C   UNL     1     -49.972  -1.398 -21.233  0.00  0.00    +0.000 A 
ATOM      8  C   UNL     1     -49.238  -2.016 -22.253  0.00  0.00    +0.000 A 
ATOM      9  C   UNL     1     -49.383  -1.132 -23.328  0.00  0.00    +0.000 A 
ATOM     10  C   UNL     1     -48.743  -1.214 -24.670  0.00  0.00    +0.000 C 
ATOM     11  N   UNL     1     -50.174  -0.101 -22.982  0.00  0.00    +0.000 NA
ATOM     12  N   UNL     1     -50.521  -0.263 -21.718  0.00  0.00    +0.000 N 
ATOM     13  H   UNL     1     -50.927  -1.355 -19.414  0.00  0.00    +0.000 HD
ATOM     14  C   UNL     1     -51.386   0.655 -21.033  0.00  0.00    +0.000 A 
ATOM     15  N   UNL     1     -52.398   1.276 -21.710  0.00  0.00    +0.000 NA
ATOM     16  C   UNL     1     -53.224   2.180 -21.093  0.00  0.00    +0.000 A 
ATOM     17  N   UNL     1     -53.044   2.498 -19.776  0.00  0.00    +0.000 NA
ATOM     18  C   UNL     1     -52.033   1.894 -19.107  0.00  0.00    +0.000 A 
ATOM     19  N   UNL     1     -51.668   2.119 -17.839  0.00  0.00    +0.000 N 
ATOM     20  C   UNL     1     -50.579   1.315 -17.700  0.00  0.00    +0.000 A 
ATOM     21  N   UNL     1     -50.261   0.617 -18.826  0.00  0.00    +0.000 NA
ATOM     22  C   UNL     1     -51.209   1.000 -19.693  0.00  0.00    +0.000 A 
ATOM     23  H   UNL     1     -52.084   2.714 -17.175  0.00  0.00    +0.000 HD
ENDROOT
BRANCH   1  26
ATOM     24  C   UNL     1     -47.692  -5.652 -25.076  0.00  0.00    +0.000 A 
ATOM     25  C   UNL     1     -48.118  -5.157 -23.833  0.00  0.00    +0.000 A 
ATOM     26  C   UNL     1     -47.925  -3.808 -23.499  0.00  0.00    +0.000 A 
ATOM     27  C   UNL     1     -47.298  -2.955 -24.411  0.00  0.00    +0.000 A 
ATOM     28  C   UNL     1     -46.870  -3.441 -25.649  0.00  0.00    +0.000 A 
ATOM     29  C   UNL     1     -47.067  -4.784 -25.983  0.00  0.00    +0.000 A 
BRANCH  29  30
ATOM     30  O   UNL     1     -46.637  -5.252 -27.218  0.00  0.00    +0.000 OA
ATOM     31  H   UNL     1     -46.220  -4.668 -27.821  0.00  0.00    +0.000 HD
ENDBRANCH  29  30
BRANCH  24  33
ATOM     32  C   UNL     1     -47.851  -8.048 -24.477  0.00  0.00    +0.000 C 
ATOM     33  O   UNL     1     -47.879  -6.993 -25.428  0.00  0.00    +0.000 OA
ENDBRANCH  24  33
ENDBRANCH   1  26
TORSDOF 3
