REMARK  Name = ZINC000004878453 PubChem-92237773
REMARK  9 active torsions:
REMARK  status: ('A' for Active; 'I' for Inactive)
REMARK    1  A    between atoms: N_17  and  C_20
REMARK    2  A    between atoms: C_20  and  C_21
REMARK    3  A    between atoms: C_21  and  O_22
REMARK    4  A    between atoms: C_21  and  C_24
REMARK    5  A    between atoms: C_24  and  O_25
REMARK    6  A    between atoms: C_24  and  C_27
REMARK    7  A    between atoms: C_27  and  O_28
REMARK    8  A    between atoms: C_27  and  C_30
REMARK    9  A    between atoms: C_30  and  O_31
REMARK                            x       y       z     vdW  Elec       q    Type
REMARK                         _______ _______ _______ _____ _____    ______ ____
ROOT
ATOM      1  C   UNL     1     -49.293  -1.138 -25.895  0.00  0.00    +0.000 C 
ATOM      2  C   UNL     1     -49.303  -0.847 -24.433  0.00  0.00    +0.000 A 
ATOM      3  C   UNL     1     -48.290  -1.320 -23.582  0.00  0.00    +0.000 A 
ATOM      4  C   UNL     1     -48.336  -1.027 -22.217  0.00  0.00    +0.000 A 
ATOM      5  C   UNL     1     -49.384  -0.264 -21.671  0.00  0.00    +0.000 A 
ATOM      6  C   UNL     1     -50.397   0.212 -22.544  0.00  0.00    +0.000 A 
ATOM      7  C   UNL     1     -50.349  -0.084 -23.908  0.00  0.00    +0.000 A 
ATOM      8  C   UNL     1     -51.448   0.983 -22.055  0.00  0.00    +0.000 A 
ATOM      9  C   UNL     1     -51.501   1.292 -20.702  0.00  0.00    +0.000 A 
ATOM     10  C   UNL     1     -52.516   2.062 -20.132  0.00  0.00    +0.000 A 
ATOM     11  O   UNL     1     -53.455   2.519 -20.837  0.00  0.00    +0.000 OA
ATOM     12  N   UNL     1     -52.490   2.324 -18.798  0.00  0.00    +0.000 N 
ATOM     13  C   UNL     1     -51.501   1.857 -17.987  0.00  0.00    +0.000 A 
ATOM     14  O   UNL     1     -51.523   2.128 -16.759  0.00  0.00    +0.000 OA
ATOM     15  N   UNL     1     -50.490   1.101 -18.492  0.00  0.00    +0.000 NA
ATOM     16  C   UNL     1     -50.436   0.789 -19.814  0.00  0.00    +0.000 A 
ATOM     17  N   UNL     1     -49.428   0.018 -20.324  0.00  0.00    +0.000 N 
ATOM     18  C   UNL     1     -47.154  -2.135 -24.100  0.00  0.00    +0.000 C 
ATOM     19  H   UNL     1     -53.211   2.868 -18.406  0.00  0.00    +0.000 HD
ENDROOT
BRANCH  17  20
ATOM     20  C   UNL     1     -48.384  -0.475 -19.417  0.00  0.00    +0.000 C 
BRANCH  20  21
ATOM     21  C   UNL     1     -48.562  -1.959 -19.100  0.00  0.00    +0.000 C 
BRANCH  21  22
ATOM     22  O   UNL     1     -47.339  -2.461 -18.653  0.00  0.00    +0.000 OA
ATOM     23  H   UNL     1     -47.068  -1.988 -17.851  0.00  0.00    +0.000 HD
ENDBRANCH  21  22
BRANCH  21  24
ATOM     24  C   UNL     1     -49.644  -2.184 -18.038  0.00  0.00    +0.000 C 
BRANCH  24  25
ATOM     25  O   UNL     1     -50.745  -2.839 -18.598  0.00  0.00    +0.000 OA
ATOM     26  H   UNL     1     -50.470  -3.710 -18.927  0.00  0.00    +0.000 HD
ENDBRANCH  24  25
BRANCH  24  27
ATOM     27  C   UNL     1     -49.108  -2.993 -16.855  0.00  0.00    +0.000 C 
BRANCH  27  28
ATOM     28  O   UNL     1     -49.719  -4.248 -16.801  0.00  0.00    +0.000 OA
ATOM     29  H   UNL     1     -50.675  -4.138 -16.677  0.00  0.00    +0.000 HD
ENDBRANCH  27  28
BRANCH  27  30
ATOM     30  C   UNL     1     -49.342  -2.243 -15.555  0.00  0.00    +0.000 C 
BRANCH  30  31
ATOM     31  O   UNL     1     -49.803  -3.124 -14.576  0.00  0.00    +0.000 OA
ATOM     32  H   UNL     1     -50.638  -3.522 -14.868  0.00  0.00    +0.000 HD
ENDBRANCH  30  31
ENDBRANCH  27  30
ENDBRANCH  24  27
ENDBRANCH  21  24
ENDBRANCH  20  21
ENDBRANCH  17  20
TORSDOF 9
