REMARK  Name = ZINC000004878449 PubChem-12923698
REMARK  9 active torsions:
REMARK  status: ('A' for Active; 'I' for Inactive)
REMARK    1  A    between atoms: N_17  and  C_20
REMARK    2  A    between atoms: C_20  and  C_21
REMARK    3  A    between atoms: C_21  and  O_22
REMARK    4  A    between atoms: C_21  and  C_24
REMARK    5  A    between atoms: C_24  and  O_25
REMARK    6  A    between atoms: C_24  and  C_27
REMARK    7  A    between atoms: C_27  and  O_28
REMARK    8  A    between atoms: C_27  and  C_30
REMARK    9  A    between atoms: C_30  and  O_31
REMARK                            x       y       z     vdW  Elec       q    Type
REMARK                         _______ _______ _______ _____ _____    ______ ____
ROOT
ATOM      1  C   UNL     1     -48.974  -0.717 -25.674  0.00  0.00    +0.000 C 
ATOM      2  C   UNL     1     -49.100  -0.660 -24.189  0.00  0.00    +0.000 A 
ATOM      3  C   UNL     1     -48.297  -1.454 -23.352  0.00  0.00    +0.000 A 
ATOM      4  C   UNL     1     -48.446  -1.373 -21.966  0.00  0.00    +0.000 A 
ATOM      5  C   UNL     1     -49.390  -0.508 -21.385  0.00  0.00    +0.000 A 
ATOM      6  C   UNL     1     -50.193   0.289 -22.242  0.00  0.00    +0.000 A 
ATOM      7  C   UNL     1     -50.042   0.205 -23.628  0.00  0.00    +0.000 A 
ATOM      8  C   UNL     1     -51.140   1.163 -21.715  0.00  0.00    +0.000 A 
ATOM      9  C   UNL     1     -51.297   1.256 -20.338  0.00  0.00    +0.000 A 
ATOM     10  C   UNL     1     -52.220   2.107 -19.728  0.00  0.00    +0.000 A 
ATOM     11  O   UNL     1     -52.972   2.846 -20.418  0.00  0.00    +0.000 OA
ATOM     12  N   UNL     1     -52.309   2.138 -18.372  0.00  0.00    +0.000 N 
ATOM     13  C   UNL     1     -51.522   1.363 -17.576  0.00  0.00    +0.000 A 
ATOM     14  O   UNL     1     -51.643   1.429 -16.326  0.00  0.00    +0.000 OA
ATOM     15  N   UNL     1     -50.608   0.516 -18.119  0.00  0.00    +0.000 NA
ATOM     16  C   UNL     1     -50.452   0.418 -19.466  0.00  0.00    +0.000 A 
ATOM     17  N   UNL     1     -49.534  -0.433 -20.019  0.00  0.00    +0.000 N 
ATOM     18  C   UNL     1     -47.279  -2.392 -23.908  0.00  0.00    +0.000 C 
ATOM     19  H   UNL     1     -52.963   2.742 -17.951  0.00  0.00    +0.000 HD
ENDROOT
BRANCH  17  20
ATOM     20  C   UNL     1     -48.715  -1.270 -19.136  0.00  0.00    +0.000 C 
BRANCH  20  21
ATOM     21  C   UNL     1     -49.388  -2.613 -18.892  0.00  0.00    +0.000 C 
BRANCH  21  22
ATOM     22  O   UNL     1     -50.279  -2.516 -17.819  0.00  0.00    +0.000 OA
ATOM     23  H   UNL     1     -49.794  -2.261 -17.018  0.00  0.00    +0.000 HD
ENDBRANCH  21  22
BRANCH  21  24
ATOM     24  C   UNL     1     -48.329  -3.686 -18.627  0.00  0.00    +0.000 C 
BRANCH  24  25
ATOM     25  O   UNL     1     -48.608  -4.396 -17.455  0.00  0.00    +0.000 OA
ATOM     26  H   UNL     1     -49.443  -4.877 -17.559  0.00  0.00    +0.000 HD
ENDBRANCH  24  25
BRANCH  24  27
ATOM     27  C   UNL     1     -48.123  -4.641 -19.805  0.00  0.00    +0.000 C 
BRANCH  27  28
ATOM     28  O   UNL     1     -47.035  -4.226 -20.576  0.00  0.00    +0.000 OA
ATOM     29  H   UNL     1     -47.219  -3.349 -20.948  0.00  0.00    +0.000 HD
ENDBRANCH  27  28
BRANCH  27  30
ATOM     30  C   UNL     1     -49.365  -4.772 -20.674  0.00  0.00    +0.000 C 
BRANCH  30  31
ATOM     31  O   UNL     1     -49.731  -6.114 -20.778  0.00  0.00    +0.000 OA
ATOM     32  H   UNL     1     -49.007  -6.617 -21.181  0.00  0.00    +0.000 HD
ENDBRANCH  30  31
ENDBRANCH  27  30
ENDBRANCH  24  27
ENDBRANCH  21  24
ENDBRANCH  20  21
ENDBRANCH  17  20
TORSDOF 9
