REMARK  Name = ZINC000032899841 ZINC32899841 PubChem-40135872
REMARK  6 active torsions:
REMARK  status: ('A' for Active; 'I' for Inactive)
REMARK    1  A    between atoms: C_1  and  C_19
REMARK    2  A    between atoms: C_12  and  C_15
REMARK    3  A    between atoms: C_19  and  O_21
REMARK    4  A    between atoms: O_21  and  C_22
REMARK    5  A    between atoms: C_22  and  C_25
REMARK    6  A    between atoms: C_25  and  N_26
REMARK                            x       y       z     vdW  Elec       q    Type
REMARK                         _______ _______ _______ _____ _____    ______ ____
ROOT
ATOM      1  C   UNL     1     -49.784  -0.607 -18.983  0.00  0.00    +0.000 C 
ATOM      2  O   UNL     1     -48.719  -0.517 -18.317  0.00  0.00    +0.000 OA
ATOM      3  N   UNL     1     -50.875   0.316 -18.747  0.00  0.00    +0.000 N 
ATOM      4  C   UNL     1     -52.005   0.334 -19.689  0.00  0.00    +0.000 C 
ATOM      5  C   UNL     1     -52.589   1.704 -19.831  0.00  0.00    +0.000 C 
ATOM      6  O   UNL     1     -53.212   2.014 -20.878  0.00  0.00    +0.000 OA
ATOM      7  N   UNL     1     -52.515   2.627 -18.744  0.00  0.00    +0.000 N 
ATOM      8  C   UNL     1     -51.739   2.319 -17.589  0.00  0.00    +0.000 A 
ATOM      9  C   UNL     1     -50.918   1.175 -17.579  0.00  0.00    +0.000 A 
ATOM     10  C   UNL     1     -50.158   0.897 -16.432  0.00  0.00    +0.000 A 
ATOM     11  C   UNL     1     -50.207   1.745 -15.324  0.00  0.00    +0.000 A 
ATOM     12  C   UNL     1     -51.028   2.881 -15.336  0.00  0.00    +0.000 A 
ATOM     13  C   UNL     1     -51.780   3.170 -16.481  0.00  0.00    +0.000 A 
ATOM     14  H   UNL     1     -53.003   3.481 -18.793  0.00  0.00    +0.000 HD
ENDROOT
BRANCH  12  15
ATOM     15  C   UNL     1     -51.041   3.827 -14.170  0.00  0.00    +0.000 C 
ATOM     16  F   UNL     1     -49.876   4.573 -14.171  0.00  0.00    +0.000 F 
ATOM     17  F   UNL     1     -52.126   4.682 -14.262  0.00  0.00    +0.000 F 
ATOM     18  F   UNL     1     -51.130   3.131 -12.977  0.00  0.00    +0.000 F 
ENDBRANCH  12  15
BRANCH   1  19
ATOM     19  C   UNL     1     -49.846  -1.666 -20.042  0.00  0.00    +0.000 C 
ATOM     20  C   UNL     1     -50.211  -3.017 -19.451  0.00  0.00    +0.000 C 
BRANCH  19  21
ATOM     21  O   UNL     1     -50.765  -1.295 -21.062  0.00  0.00    +0.000 OA
BRANCH  21  22
ATOM     22  C   UNL     1     -50.727  -1.859 -22.340  0.00  0.00    +0.000 C 
ATOM     23  O   UNL     1     -51.070  -3.059 -22.526  0.00  0.00    +0.000 OA
BRANCH  22  25
ATOM     24  C   UNL     1     -50.005   0.397 -23.106  0.00  0.00    +0.000 C 
ATOM     25  C   UNL     1     -50.242  -1.052 -23.498  0.00  0.00    +0.000 C 
BRANCH  25  26
ATOM     26  N   UNL     1     -49.043  -1.646 -24.090  0.00  0.00    +0.000 N 
ATOM     27  C   UNL     1     -48.958  -2.297 -25.262  0.00  0.00    +0.000 A 
ATOM     28  C   UNL     1     -49.958  -2.549 -26.200  0.00  0.00    +0.000 A 
ATOM     29  C   UNL     1     -49.594  -3.283 -27.345  0.00  0.00    +0.000 A 
ATOM     30  C   UNL     1     -48.267  -3.738 -27.517  0.00  0.00    +0.000 A 
ATOM     31  C   UNL     1     -47.283  -3.470 -26.548  0.00  0.00    +0.000 A 
ATOM     32  C   UNL     1     -47.675  -2.744 -25.428  0.00  0.00    +0.000 A 
ATOM     33  O   UNL     1     -46.955  -2.387 -24.391  0.00  0.00    +0.000 OA
ATOM     34  C   UNL     1     -47.782  -1.734 -23.591  0.00  0.00    +0.000 A 
ATOM     35  O   UNL     1     -47.431  -1.255 -22.480  0.00  0.00    +0.000 OA
ENDBRANCH  25  26
ENDBRANCH  22  25
ENDBRANCH  21  22
ENDBRANCH  19  21
ENDBRANCH   1  19
TORSDOF 6
