REMARK  Name = ZINC000002118541 MCULE-8742096214 MolPort-002-525-345
REMARK  8 active torsions:
REMARK  status: ('A' for Active; 'I' for Inactive)
REMARK    1  A    between atoms: CG_2  and  CB_3
REMARK    2  A    between atoms: CG_2  and  SD_24
REMARK    3  A    between atoms: CB_3  and  CA_4
REMARK    4  A    between atoms: CA_4  and  C_23
REMARK    5  A    between atoms: CA_4  and  N_25
REMARK    6  A    between atoms: C_5  and  C_6
REMARK    7  A    between atoms: C_6  and  C_7
REMARK    8  A    between atoms: C_15  and  C_16
REMARK                            x       y       z     vdW  Elec       q    Type
REMARK                         _______ _______ _______ _____ _____    ______ ____
ROOT
ATOM      1  C   UNK A   0     -49.645  -0.277 -18.911  0.00  0.00    +0.000 A 
ATOM      2  C   UNK A   0     -49.302   0.392 -20.100  0.00  0.00    +0.000 A 
ATOM      3  C   UNK A   0     -49.190   1.887 -20.125  0.00  0.00    +0.000 C 
ATOM      4  C   UNK A   0     -49.063  -0.361 -21.261  0.00  0.00    +0.000 A 
ATOM      5  C   UNK A   0     -48.717   0.253 -22.483  0.00  0.00    +0.000 A 
ATOM      6  C   UNK A   0     -48.498  -0.571 -23.585  0.00  0.00    +0.000 A 
ATOM      7  C   UNK A   0     -48.608  -1.930 -23.508  0.00  0.00    +0.000 A 
ATOM      8  C   UNK A   0     -48.076  -1.516 -25.535  0.00  0.00    +0.000 A 
ATOM      9  C   UNK A   0     -48.154  -0.279 -24.889  0.00  0.00    +0.000 A 
ATOM     10  C   UNK A   0     -48.946  -2.576 -22.322  0.00  0.00    +0.000 A 
ATOM     11  C   UNK A   0     -49.177  -1.781 -21.185  0.00  0.00    +0.000 A 
ATOM     12  C   UNK A   0     -49.737  -1.680 -18.923  0.00  0.00    +0.000 A 
ATOM     13  O   UNK A   0     -48.355  -2.478 -24.670  0.00  0.00    +0.000 OA
ATOM     14  O   UNK A   0     -49.502  -2.364 -20.038  0.00  0.00    +0.000 OA
ATOM     15  O   UNK A   0     -50.043  -2.306 -17.873  0.00  0.00    +0.000 OA
ENDROOT
BRANCH   9  16
ATOM     16  C   UNK A   0     -47.915   1.086 -25.491  0.00  0.00    +0.000 C 
ATOM     17  C   UNK A   0     -49.169   1.931 -25.363  0.00  0.00    +0.000 C 
ATOM     18  C   UNK A   0     -47.552   0.990 -26.963  0.00  0.00    +0.000 C 
ATOM     19  C   UNK A   0     -46.777   1.778 -24.764  0.00  0.00    +0.000 C 
ENDBRANCH   9  16
BRANCH   1  20
ATOM     20  C   UNK A   0     -49.941   0.489 -17.653  0.00  0.00    +0.000 C 
BRANCH  20  21
ATOM     21  C   UNK A   0     -51.402   0.761 -17.541  0.00  0.00    +0.000 C 
ATOM     22  N   MET A   1     -51.986   1.817 -18.305  0.00  0.00    +0.000 NA
ATOM     23  O   UNK A   0     -52.115   0.042 -16.791  0.00  0.00    +0.000 OA
BRANCH  22  24
ATOM     24  CA  MET A   1     -53.412   2.101 -18.266  0.00  0.00    +0.000 C 
BRANCH  24  25
ATOM     25  C   MET A   1     -54.014   1.842 -19.607  0.00  0.00    +0.000 C 
ATOM     26  O   MET A   1     -55.019   0.894 -19.736  0.00  0.00    +0.000 OA
ATOM     27  OXT MET A   1     -53.612   2.471 -20.622  0.00  0.00    +0.000 OA
ENDBRANCH  24  25
BRANCH  24  28
ATOM     28  CB  MET A   1     -53.656   3.544 -17.845  0.00  0.00    +0.000 C 
BRANCH  28  29
ATOM     29  CG  MET A   1     -53.438   3.723 -16.352  0.00  0.00    +0.000 C 
BRANCH  29  31
ATOM     30  CE  MET A   1     -51.984   4.115 -14.217  0.00  0.00    +0.000 C 
ATOM     31  SD  MET A   1     -51.698   4.117 -16.008  0.00  0.00    +0.000 S 
ENDBRANCH  29  31
ENDBRANCH  28  29
ENDBRANCH  24  28
ENDBRANCH  22  24
ENDBRANCH  20  21
ENDBRANCH   1  20
TORSDOF 8
