REMARK  Name = ZINC000253471169 PubChem-124891265
REMARK  9 active torsions:
REMARK  status: ('A' for Active; 'I' for Inactive)
REMARK    1  A    between atoms: C_1  and  C_2
REMARK    2  A    between atoms: C_1  and  C_18
REMARK    3  A    between atoms: C_1  and  C_25
REMARK    4  A    between atoms: C_3  and  O_4
REMARK    5  A    between atoms: C_15  and  O_24
REMARK    6  A    between atoms: C_20  and  O_21
REMARK    7  A    between atoms: C_25  and  C_26
REMARK    8  A    between atoms: N_28  and  C_30
REMARK    9  A    between atoms: C_30  and  C_31
REMARK                            x       y       z     vdW  Elec       q    Type
REMARK                         _______ _______ _______ _____ _____    ______ ____
ROOT
ATOM      1  C   UNL     1     -50.227  -0.435 -21.947  0.00  0.00    +0.000 C 
ENDROOT
BRANCH   1   2
ATOM      2  C   UNL     1     -49.545  -1.006 -23.164  0.00  0.00    +0.000 A 
ATOM      3  C   UNL     1     -49.056  -2.319 -23.114  0.00  0.00    +0.000 A 
ATOM      4  C   UNL     1     -48.412  -2.858 -24.232  0.00  0.00    +0.000 A 
ATOM      5  C   UNL     1     -47.919  -4.170 -24.231  0.00  0.00    +0.000 A 
ATOM      6  C   UNL     1     -47.276  -4.676 -25.365  0.00  0.00    +0.000 A 
ATOM      7  C   UNL     1     -47.126  -3.874 -26.502  0.00  0.00    +0.000 A 
ATOM      8  C   UNL     1     -47.619  -2.566 -26.510  0.00  0.00    +0.000 A 
ATOM      9  C   UNL     1     -48.263  -2.053 -25.380  0.00  0.00    +0.000 A 
ATOM     10  O   UNL     1     -48.735  -0.811 -25.395  0.00  0.00    +0.000 OA
ATOM     11  C   UNL     1     -49.360  -0.267 -24.354  0.00  0.00    +0.000 A 
ATOM     12  O   UNL     1     -49.788   0.914 -24.450  0.00  0.00    +0.000 OA
BRANCH   3  13
ATOM     13  O   UNL     1     -49.216  -3.083 -21.959  0.00  0.00    +0.000 OA
ATOM     14  H   UNL     1     -49.648  -2.718 -21.212  0.00  0.00    +0.000 HD
ENDBRANCH   3  13
ENDBRANCH   1   2
BRANCH   1  18
ATOM     15  C   UNL     1     -48.139  -1.170 -18.237  0.00  0.00    +0.000 A 
ATOM     16  C   UNL     1     -47.581  -0.329 -19.206  0.00  0.00    +0.000 A 
ATOM     17  C   UNL     1     -48.241  -0.090 -20.412  0.00  0.00    +0.000 A 
ATOM     18  C   UNL     1     -49.474  -0.698 -20.674  0.00  0.00    +0.000 A 
ATOM     19  C   UNL     1     -50.039  -1.541 -19.715  0.00  0.00    +0.000 A 
ATOM     20  C   UNL     1     -49.386  -1.783 -18.502  0.00  0.00    +0.000 A 
BRANCH  20  21
ATOM     21  O   UNL     1     -49.998  -2.622 -17.579  0.00  0.00    +0.000 OA
ATOM     22  H   UNL     1     -50.825  -3.015 -17.779  0.00  0.00    +0.000 HD
ENDBRANCH  20  21
BRANCH  15  24
ATOM     23  C   UNL     1     -47.430  -0.454 -15.948  0.00  0.00    +0.000 C 
ATOM     24  O   UNL     1     -47.417  -1.353 -17.048  0.00  0.00    +0.000 OA
ENDBRANCH  15  24
ENDBRANCH   1  18
BRANCH   1  25
ATOM     25  C   UNL     1     -50.657   1.023 -22.126  0.00  0.00    +0.000 C 
BRANCH  25  26
ATOM     26  C   UNL     1     -51.741   1.383 -21.167  0.00  0.00    +0.000 C 
ATOM     27  O   UNL     1     -52.918   0.994 -21.385  0.00  0.00    +0.000 OA
ATOM     28  N   UNL     1     -51.435   2.159 -20.008  0.00  0.00    +0.000 N 
ATOM     29  H   UNL     1     -50.528   2.527 -19.910  0.00  0.00    +0.000 HD
BRANCH  28  30
ATOM     30  C   UNL     1     -52.415   2.425 -18.968  0.00  0.00    +0.000 C 
BRANCH  30  31
ATOM     31  C   UNL     1     -51.765   2.310 -17.635  0.00  0.00    +0.000 A 
ATOM     32  C   UNL     1     -50.947   1.193 -17.350  0.00  0.00    +0.000 A 
ATOM     33  C   UNL     1     -50.303   1.078 -16.106  0.00  0.00    +0.000 A 
ATOM     34  C   UNL     1     -50.501   2.102 -15.184  0.00  0.00    +0.000 A 
ATOM     35  C   UNL     1     -51.282   3.178 -15.457  0.00  0.00    +0.000 A 
ATOM     36  C   UNL     1     -51.934   3.328 -16.679  0.00  0.00    +0.000 A 
ATOM     37  O   UNL     1     -51.298   4.023 -14.365  0.00  0.00    +0.000 OA
ATOM     38  C   UNL     1     -50.480   3.441 -13.339  0.00  0.00    +0.000 C 
ATOM     39  O   UNL     1     -49.989   2.218 -13.906  0.00  0.00    +0.000 OA
ENDBRANCH  30  31
ENDBRANCH  28  30
ENDBRANCH  25  26
ENDBRANCH   1  25
TORSDOF 9
