REMARK  Name = ZINC000007171592 ZINC07171592 PubChem-8287314
REMARK  5 active torsions:
REMARK  status: ('A' for Active; 'I' for Inactive)
REMARK    1  A    between atoms: C_2  and  C_3
REMARK    2  A    between atoms: C_2  and  S_17
REMARK    3  A    between atoms: S_17  and  C_18
REMARK    4  A    between atoms: C_21  and  C_29
REMARK    5  A    between atoms: N_22  and  C_23
REMARK                            x       y       z     vdW  Elec       q    Type
REMARK                         _______ _______ _______ _____ _____    ______ ____
ROOT
ATOM      1  C   UNL     1     -50.397  -3.606 -20.727  0.00  0.00    +0.000 C 
ATOM      2  C   UNL     1     -50.249  -2.092 -20.713  0.00  0.00    +0.000 C 
ENDROOT
BRANCH   2   3
ATOM      3  C   UNL     1     -50.548  -1.494 -19.364  0.00  0.00    +0.000 C 
ATOM      4  O   UNL     1     -50.443  -2.206 -18.327  0.00  0.00    +0.000 OA
ATOM      5  N   UNL     1     -50.975  -0.120 -19.256  0.00  0.00    +0.000 N 
ATOM      6  C   UNL     1     -51.514   0.539 -20.453  0.00  0.00    +0.000 C 
ATOM      7  C   UNL     1     -52.566   1.546 -20.103  0.00  0.00    +0.000 C 
ATOM      8  O   UNL     1     -53.442   1.858 -20.950  0.00  0.00    +0.000 OA
ATOM      9  N   UNL     1     -52.532   2.205 -18.837  0.00  0.00    +0.000 N 
ATOM     10  C   UNL     1     -51.607   1.791 -17.833  0.00  0.00    +0.000 A 
ATOM     11  C   UNL     1     -50.828   0.635 -18.031  0.00  0.00    +0.000 A 
ATOM     12  C   UNL     1     -49.917   0.249 -17.034  0.00  0.00    +0.000 A 
ATOM     13  C   UNL     1     -49.796   0.992 -15.857  0.00  0.00    +0.000 A 
ATOM     14  C   UNL     1     -50.584   2.130 -15.664  0.00  0.00    +0.000 A 
ATOM     15  C   UNL     1     -51.489   2.529 -16.651  0.00  0.00    +0.000 A 
ATOM     16  H   UNL     1     -53.151   2.949 -18.656  0.00  0.00    +0.000 HD
ENDBRANCH   2   3
BRANCH   2  17
ATOM     17  S   UNL     1     -48.567  -1.637 -21.232  0.00  0.00    +0.000 S 
BRANCH  17  18
ATOM     18  C   UNL     1     -49.098  -1.258 -22.903  0.00  0.00    +0.000 A 
ATOM     19  N   UNL     1     -49.599  -0.058 -23.251  0.00  0.00    +0.000 NA
ATOM     20  N   UNL     1     -49.934  -0.135 -24.529  0.00  0.00    +0.000 NA
ATOM     21  C   UNL     1     -49.648  -1.388 -24.941  0.00  0.00    +0.000 A 
ATOM     22  N   UNL     1     -49.106  -2.122 -23.942  0.00  0.00    +0.000 N 
BRANCH  22  23
ATOM     23  C   UNL     1     -48.626  -3.481 -23.985  0.00  0.00    +0.000 A 
ATOM     24  C   UNL     1     -47.262  -3.751 -24.175  0.00  0.00    +0.000 A 
ATOM     25  C   UNL     1     -46.796  -5.068 -24.215  0.00  0.00    +0.000 A 
ATOM     26  C   UNL     1     -47.691  -6.130 -24.068  0.00  0.00    +0.000 A 
ATOM     27  C   UNL     1     -49.052  -5.874 -23.882  0.00  0.00    +0.000 A 
ATOM     28  C   UNL     1     -49.516  -4.557 -23.841  0.00  0.00    +0.000 A 
ENDBRANCH  22  23
BRANCH  21  29
ATOM     29  C   UNL     1     -49.813  -1.856 -26.358  0.00  0.00    +0.000 C 
ATOM     30  C   UNL     1     -51.032  -1.224 -27.009  0.00  0.00    +0.000 C 
ATOM     31  C   UNL     1     -51.109  -2.636 -26.480  0.00  0.00    +0.000 C 
ENDBRANCH  21  29
ENDBRANCH  17  18
ENDBRANCH   2  17
TORSDOF 5
