REMARK  Name = ZINC000021907259
REMARK  4 active torsions:
REMARK  status: ('A' for Active; 'I' for Inactive)
REMARK    1  A    between atoms: C_2  and  C_5
REMARK    2  A    between atoms: N_3  and  C_17
REMARK    3  A    between atoms: N_21  and  C_22
REMARK    4  A    between atoms: C_22  and  C_23
REMARK                            x       y       z     vdW  Elec       q    Type
REMARK                         _______ _______ _______ _____ _____    ______ ____
ROOT
ATOM      1  O   UNL     1     -50.670  -2.246 -18.556  0.00  0.00    +0.000 OA
ATOM      2  C   UNL     1     -50.244  -1.180 -19.077  0.00  0.00    +0.000 C 
ATOM      3  N   UNL     1     -49.002  -1.182 -19.796  0.00  0.00    +0.000 N 
ATOM      4  H   UNL     1     -48.693  -0.322 -20.162  0.00  0.00    +0.000 HD
ENDROOT
BRANCH   2   5
ATOM      5  C   UNL     1     -51.015   0.086 -18.957  0.00  0.00    +0.000 A 
ATOM      6  C   UNL     1     -51.819   0.466 -20.041  0.00  0.00    +0.000 A 
ATOM      7  C   UNL     1     -52.568   1.639 -19.992  0.00  0.00    +0.000 A 
ATOM      8  O   UNL     1     -53.285   1.967 -20.973  0.00  0.00    +0.000 OA
ATOM      9  N   UNL     1     -52.527   2.429 -18.889  0.00  0.00    +0.000 N 
ATOM     10  C   UNL     1     -51.765   2.110 -17.812  0.00  0.00    +0.000 A 
ATOM     11  C   UNL     1     -51.754   2.958 -16.701  0.00  0.00    +0.000 A 
ATOM     12  C   UNL     1     -50.972   2.647 -15.587  0.00  0.00    +0.000 A 
ATOM     13  C   UNL     1     -50.196   1.486 -15.580  0.00  0.00    +0.000 A 
ATOM     14  C   UNL     1     -50.202   0.633 -16.686  0.00  0.00    +0.000 A 
ATOM     15  C   UNL     1     -50.983   0.926 -17.815  0.00  0.00    +0.000 A 
ATOM     16  H   UNL     1     -53.063   3.254 -18.870  0.00  0.00    +0.000 HD
ENDBRANCH   2   5
BRANCH   3  17
ATOM     17  C   UNL     1     -48.172  -2.327 -20.029  0.00  0.00    +0.000 A 
ATOM     18  C   UNL     1     -47.067  -2.708 -19.292  0.00  0.00    +0.000 A 
ATOM     19  C   UNL     1     -46.644  -3.873 -19.923  0.00  0.00    +0.000 A 
ATOM     20  N   UNL     1     -47.458  -4.149 -20.964  0.00  0.00    +0.000 NA
ATOM     21  N   UNL     1     -48.383  -3.209 -21.016  0.00  0.00    +0.000 N 
BRANCH  21  22
ATOM     22  C   UNL     1     -49.425  -3.148 -22.032  0.00  0.00    +0.000 C 
BRANCH  22  23
ATOM     23  C   UNL     1     -48.905  -2.493 -23.273  0.00  0.00    +0.000 A 
ATOM     24  C   UNL     1     -47.683  -2.921 -23.807  0.00  0.00    +0.000 A 
ATOM     25  C   UNL     1     -47.166  -2.320 -24.957  0.00  0.00    +0.000 A 
ATOM     26  C   UNL     1     -47.869  -1.287 -25.581  0.00  0.00    +0.000 A 
ATOM     27  C   UNL     1     -49.090  -0.856 -25.056  0.00  0.00    +0.000 A 
ATOM     28  C   UNL     1     -49.613  -1.453 -23.905  0.00  0.00    +0.000 A 
ATOM     29 CL   UNL     1     -51.162  -0.890 -23.299  0.00  0.00    +0.000 Cl
ENDBRANCH  22  23
ENDBRANCH  21  22
ENDBRANCH   3  17
TORSDOF 4
