REMARK  Name = ZINC000033168752 ZINC33168752 PubChem-92884272
REMARK  7 active torsions:
REMARK  status: ('A' for Active; 'I' for Inactive)
REMARK    1  A    between atoms: C_5  and  C_21
REMARK    2  A    between atoms: C_7  and  S_13
REMARK    3  A    between atoms: S_13  and  C_18
REMARK    4  A    between atoms: N_23  and  C_25
REMARK    5  A    between atoms: C_25  and  C_26
REMARK    6  A    between atoms: C_28  and  O_34
REMARK    7  A    between atoms: C_31  and  O_32
REMARK                            x       y       z     vdW  Elec       q    Type
REMARK                         _______ _______ _______ _____ _____    ______ ____
ROOT
ATOM      1  N   UNL     1     -50.258  -1.111 -21.691  0.00  0.00    +0.000 N 
ATOM      2  C   UNL     1     -50.890  -1.482 -22.962  0.00  0.00    +0.000 C 
ATOM      3  C   UNL     1     -51.204  -0.267 -23.824  0.00  0.00    +0.000 C 
ATOM      4  C   UNL     1     -51.923   0.766 -22.976  0.00  0.00    +0.000 C 
ATOM      5  C   UNL     1     -51.028   1.272 -21.841  0.00  0.00    +0.000 C 
ATOM      6  C   UNL     1     -49.934   0.287 -21.393  0.00  0.00    +0.000 C 
ATOM      7  C   UNL     1     -48.166  -2.272 -20.981  0.00  0.00    +0.000 A 
ATOM      8  C   UNL     1     -49.572  -2.146 -20.968  0.00  0.00    +0.000 A 
ATOM      9  N   UNL     1     -50.295  -3.010 -20.203  0.00  0.00    +0.000 NA
ATOM     10  C   UNL     1     -49.703  -3.986 -19.467  0.00  0.00    +0.000 A 
ATOM     11  C   UNL     1     -48.316  -4.102 -19.477  0.00  0.00    +0.000 A 
ATOM     12  N   UNL     1     -47.582  -3.240 -20.224  0.00  0.00    +0.000 NA
ENDROOT
BRANCH   5  13
ATOM     13  C   UNL     1     -51.855   1.726 -20.685  0.00  0.00    +0.000 C 
ATOM     14  O   UNL     1     -53.054   2.061 -20.880  0.00  0.00    +0.000 OA
ATOM     15  N   UNL     1     -51.299   1.759 -19.370  0.00  0.00    +0.000 N 
ATOM     16  H   UNL     1     -50.380   1.434 -19.234  0.00  0.00    +0.000 HD
BRANCH  15  17
ATOM     17  C   UNL     1     -52.046   2.256 -18.227  0.00  0.00    +0.000 C 
BRANCH  17  18
ATOM     18  C   UNL     1     -51.292   1.975 -16.972  0.00  0.00    +0.000 A 
ATOM     19  C   UNL     1     -50.544   0.798 -16.871  0.00  0.00    +0.000 A 
ATOM     20  C   UNL     1     -49.848   0.492 -15.692  0.00  0.00    +0.000 A 
ATOM     21  C   UNL     1     -49.908   1.377 -14.613  0.00  0.00    +0.000 A 
ATOM     22  C   UNL     1     -50.656   2.552 -14.706  0.00  0.00    +0.000 A 
ATOM     23  C   UNL     1     -51.356   2.860 -15.884  0.00  0.00    +0.000 A 
BRANCH  20  24
ATOM     24  O   UNL     1     -49.097  -0.680 -15.568  0.00  0.00    +0.000 OA
ATOM     25  C   UNL     1     -49.114  -1.711 -16.547  0.00  0.00    +0.000 C 
ENDBRANCH  20  24
BRANCH  23  26
ATOM     26  O   UNL     1     -52.109   4.036 -15.993  0.00  0.00    +0.000 OA
ATOM     27  C   UNL     1     -51.646   5.293 -15.522  0.00  0.00    +0.000 C 
ENDBRANCH  23  26
ENDBRANCH  17  18
ENDBRANCH  15  17
ENDBRANCH   5  13
BRANCH   7  28
ATOM     28  S   UNL     1     -47.105  -1.145 -21.888  0.00  0.00    +0.000 S 
BRANCH  28  33
ATOM     29  C   UNL     1     -47.472  -4.283 -27.077  0.00  0.00    +0.000 C 
ATOM     30  C   UNL     1     -47.391  -3.513 -25.809  0.00  0.00    +0.000 A 
ATOM     31  C   UNL     1     -47.497  -2.120 -25.828  0.00  0.00    +0.000 A 
ATOM     32  C   UNL     1     -47.416  -1.397 -24.634  0.00  0.00    +0.000 A 
ATOM     33  C   UNL     1     -47.234  -2.066 -23.419  0.00  0.00    +0.000 A 
ATOM     34  C   UNL     1     -47.121  -3.460 -23.402  0.00  0.00    +0.000 A 
ATOM     35  C   UNL     1     -47.202  -4.183 -24.596  0.00  0.00    +0.000 A 
ENDBRANCH  28  33
ENDBRANCH   7  28
TORSDOF 7
