REMARK  Name = ZINC000005011747 PubChem-92247271
REMARK  9 active torsions:
REMARK  status: ('A' for Active; 'I' for Inactive)
REMARK    1  A    between atoms: N_18  and  C_21
REMARK    2  A    between atoms: C_21  and  C_22
REMARK    3  A    between atoms: C_22  and  O_23
REMARK    4  A    between atoms: C_22  and  C_25
REMARK    5  A    between atoms: C_25  and  O_26
REMARK    6  A    between atoms: C_25  and  C_28
REMARK    7  A    between atoms: C_28  and  O_29
REMARK    8  A    between atoms: C_28  and  C_31
REMARK    9  A    between atoms: C_31  and  O_32
REMARK                            x       y       z     vdW  Elec       q    Type
REMARK                         _______ _______ _______ _____ _____    ______ ____
ROOT
ATOM      1  C   UNL     1     -47.145  -2.200 -24.007  0.00  0.00    +0.000 C 
ATOM      2  C   UNL     1     -48.276  -1.367 -23.504  0.00  0.00    +0.000 A 
ATOM      3  C   UNL     1     -48.328  -1.060 -22.144  0.00  0.00    +0.000 A 
ATOM      4  C   UNL     1     -49.372  -0.282 -21.611  0.00  0.00    +0.000 A 
ATOM      5  C   UNL     1     -50.383   0.200 -22.486  0.00  0.00    +0.000 A 
ATOM      6  C   UNL     1     -50.319  -0.116 -23.852  0.00  0.00    +0.000 A 
ATOM      7  C   UNL     1     -49.278  -0.892 -24.364  0.00  0.00    +0.000 A 
ATOM      8  C   UNL     1     -49.263  -1.196 -25.824  0.00  0.00    +0.000 C 
ATOM      9  N   UNL     1     -51.412   0.962 -22.010  0.00  0.00    +0.000 N 
ATOM     10  C   UNL     1     -51.480   1.274 -20.682  0.00  0.00    +0.000 A 
ATOM     11  C   UNL     1     -52.499   2.058 -20.111  0.00  0.00    +0.000 A 
ATOM     12  O   UNL     1     -53.436   2.527 -20.810  0.00  0.00    +0.000 OA
ATOM     13  N   UNL     1     -52.479   2.319 -18.777  0.00  0.00    +0.000 N 
ATOM     14  C   UNL     1     -51.502   1.849 -17.958  0.00  0.00    +0.000 A 
ATOM     15  O   UNL     1     -51.532   2.122 -16.730  0.00  0.00    +0.000 OA
ATOM     16  N   UNL     1     -50.494   1.086 -18.453  0.00  0.00    +0.000 NA
ATOM     17  C   UNL     1     -50.431   0.771 -19.773  0.00  0.00    +0.000 A 
ATOM     18  N   UNL     1     -49.422  -0.002 -20.270  0.00  0.00    +0.000 N 
ATOM     19  O   UNL     1     -52.377   1.411 -22.887  0.00  0.00    +0.000 OA
ATOM     20  H   UNL     1     -53.198   2.869 -18.391  0.00  0.00    +0.000 HD
ENDROOT
BRANCH  18  21
ATOM     21  C   UNL     1     -48.388  -0.520 -19.366  0.00  0.00    +0.000 C 
BRANCH  21  22
ATOM     22  C   UNL     1     -48.933  -1.610 -18.443  0.00  0.00    +0.000 C 
BRANCH  22  23
ATOM     23  O   UNL     1     -48.744  -1.203 -17.121  0.00  0.00    +0.000 OA
ATOM     24  H   UNL     1     -47.797  -1.079 -16.953  0.00  0.00    +0.000 HD
ENDBRANCH  22  23
BRANCH  22  25
ATOM     25  C   UNL     1     -48.239  -2.954 -18.687  0.00  0.00    +0.000 C 
BRANCH  25  26
ATOM     26  O   UNL     1     -47.107  -3.076 -17.874  0.00  0.00    +0.000 OA
ATOM     27  H   UNL     1     -47.373  -3.046 -16.942  0.00  0.00    +0.000 HD
ENDBRANCH  25  26
BRANCH  25  28
ATOM     28  C   UNL     1     -49.199  -4.117 -18.425  0.00  0.00    +0.000 C 
BRANCH  28  29
ATOM     29  O   UNL     1     -49.647  -4.121 -17.102  0.00  0.00    +0.000 OA
ATOM     30  H   UNL     1     -48.893  -4.254 -16.506  0.00  0.00    +0.000 HD
ENDBRANCH  28  29
BRANCH  28  31
ATOM     31  C   UNL     1     -48.582  -5.462 -18.791  0.00  0.00    +0.000 C 
BRANCH  31  32
ATOM     32  O   UNL     1     -48.226  -6.175 -17.645  0.00  0.00    +0.000 OA
ATOM     33  H   UNL     1     -47.572  -5.669 -17.139  0.00  0.00    +0.000 HD
ENDBRANCH  31  32
ENDBRANCH  28  31
ENDBRANCH  25  28
ENDBRANCH  22  25
ENDBRANCH  21  22
ENDBRANCH  18  21
TORSDOF 9
