REMARK  Name = ZINC000019126373 ZINC19126373 PubChem-92555022
REMARK  3 active torsions:
REMARK  status: ('A' for Active; 'I' for Inactive)
REMARK    1  A    between atoms: C_1  and  C_14
REMARK    2  A    between atoms: C_7  and  C_19
REMARK    3  A    between atoms: C_23  and  C_25
REMARK                            x       y       z     vdW  Elec       q    Type
REMARK                         _______ _______ _______ _____ _____    ______ ____
ROOT
ATOM      1  C   UNL     1     -46.785  -1.607 -20.257  0.00  0.00    +0.000 C 
ATOM      2  O   UNL     1     -46.026  -0.627 -20.021  0.00  0.00    +0.000 OA
ATOM      3  N   UNL     1     -47.507  -2.212 -19.162  0.00  0.00    +0.000 N 
ATOM      4  C   UNL     1     -47.390  -1.645 -17.823  0.00  0.00    +0.000 C 
ATOM      5  C   UNL     1     -48.666  -0.876 -17.497  0.00  0.00    +0.000 C 
ATOM      6  C   UNL     1     -49.886  -1.791 -17.637  0.00  0.00    +0.000 C 
ATOM      7  C   UNL     1     -49.947  -2.483 -19.008  0.00  0.00    +0.000 C 
ATOM      8  C   UNL     1     -48.613  -3.145 -19.372  0.00  0.00    +0.000 C 
ENDROOT
BRANCH   1  14
ATOM      9  C   UNL     1     -47.073  -5.716 -26.390  0.00  0.00    +0.000 C 
ATOM     10  C   UNL     1     -47.061  -4.713 -25.293  0.00  0.00    +0.000 A 
ATOM     11  C   UNL     1     -46.810  -5.011 -23.953  0.00  0.00    +0.000 A 
ATOM     12  C   UNL     1     -46.909  -3.776 -23.350  0.00  0.00    +0.000 A 
ATOM     13  C   UNL     1     -46.762  -3.421 -22.012  0.00  0.00    +0.000 A 
ATOM     14  C   UNL     1     -46.927  -2.064 -21.660  0.00  0.00    +0.000 A 
ATOM     15  C   UNL     1     -47.217  -1.114 -22.670  0.00  0.00    +0.000 A 
ATOM     16  C   UNL     1     -47.359  -1.501 -24.014  0.00  0.00    +0.000 A 
ATOM     17  C   UNL     1     -47.199  -2.850 -24.313  0.00  0.00    +0.000 A 
ATOM     18  O   UNL     1     -47.288  -3.427 -25.481  0.00  0.00    +0.000 OA
ENDBRANCH   1  14
BRANCH   7  19
ATOM     19  C   UNL     1     -50.465  -1.594 -20.101  0.00  0.00    +0.000 A 
ATOM     20  C   UNL     1     -50.904  -0.294 -19.839  0.00  0.00    +0.000 A 
ATOM     21  C   UNL     1     -51.340   0.498 -20.904  0.00  0.00    +0.000 A 
ATOM     22  N   UNL     1     -51.333  -0.012 -22.163  0.00  0.00    +0.000 NA
ATOM     23  C   UNL     1     -50.909  -1.282 -22.410  0.00  0.00    +0.000 A 
ATOM     24  N   UNL     1     -50.477  -2.058 -21.378  0.00  0.00    +0.000 NA
ATOM     25  N   UNL     1     -51.784   1.840 -20.692  0.00  0.00    +0.000 N 
ATOM     26  C   UNL     1     -52.282   2.314 -19.411  0.00  0.00    +0.000 C 
ATOM     27  H   UNL     1     -51.751   2.471 -21.447  0.00  0.00    +0.000 HD
BRANCH  23  28
ATOM     28  C   UNL     1     -50.908  -1.810 -23.786  0.00  0.00    +0.000 A 
ATOM     29  C   UNL     1     -50.789  -3.185 -24.026  0.00  0.00    +0.000 A 
ATOM     30  C   UNL     1     -50.789  -3.672 -25.333  0.00  0.00    +0.000 A 
ATOM     31  C   UNL     1     -50.908  -2.774 -26.395  0.00  0.00    +0.000 A 
ATOM     32  N   UNL     1     -51.023  -1.442 -26.151  0.00  0.00    +0.000 NA
ATOM     33  C   UNL     1     -51.025  -0.947 -24.884  0.00  0.00    +0.000 A 
ENDBRANCH  23  28
ENDBRANCH   7  19
TORSDOF 3
