REMARK  Name = ZINC000031811577
REMARK  1 active torsions:
REMARK  status: ('A' for Active; 'I' for Inactive)
REMARK    1  A    between atoms: C_7  and  C_24
REMARK                            x       y       z     vdW  Elec       q    Type
REMARK                         _______ _______ _______ _____ _____    ______ ____
ROOT
ATOM      1  C   UNL     1     -50.590  -0.612 -23.654  0.00  0.00    +0.000 C 
ATOM      2  C   UNL     1     -50.300  -0.820 -22.208  0.00  0.00    +0.000 A 
ATOM      3  N   UNL     1     -50.575   0.112 -21.281  0.00  0.00    +0.000 NA
ATOM      4  N   UNL     1     -50.273  -0.387 -20.095  0.00  0.00    +0.000 N 
ATOM      5  C   UNL     1     -49.845  -1.664 -20.238  0.00  0.00    +0.000 A 
ATOM      6  C   UNL     1     -49.784  -1.969 -21.604  0.00  0.00    +0.000 A 
ATOM      7  C   UNL     1     -49.355  -3.257 -22.291  0.00  0.00    +0.000 C 
ATOM      8  S   UNL     1     -48.084  -4.162 -21.363  0.00  0.00    +0.000 S 
ATOM      9  C   UNL     1     -49.365  -4.801 -20.270  0.00  0.00    +0.000 C 
ATOM     10  C   UNL     1     -49.427  -3.953 -19.057  0.00  0.00    +0.000 C 
ATOM     11  O   UNL     1     -49.255  -4.496 -17.936  0.00  0.00    +0.000 OA
ATOM     12  N   UNL     1     -49.682  -2.546 -19.113  0.00  0.00    +0.000 N 
ATOM     13  H   UNL     1     -49.759  -2.108 -18.234  0.00  0.00    +0.000 HD
ATOM     14  C   UNL     1     -50.468   0.358 -18.881  0.00  0.00    +0.000 A 
ATOM     15  N   UNL     1     -51.566   1.164 -18.750  0.00  0.00    +0.000 NA
ATOM     16  C   UNL     1     -51.777   1.921 -17.625  0.00  0.00    +0.000 A 
ATOM     17  N   UNL     1     -50.874   1.904 -16.600  0.00  0.00    +0.000 NA
ATOM     18  C   UNL     1     -49.776   1.124 -16.732  0.00  0.00    +0.000 A 
ATOM     19  N   UNL     1     -48.770   1.012 -15.857  0.00  0.00    +0.000 N 
ATOM     20  C   UNL     1     -47.919   0.163 -16.493  0.00  0.00    +0.000 A 
ATOM     21  N   UNL     1     -48.359  -0.242 -17.716  0.00  0.00    +0.000 NA
ATOM     22  C   UNL     1     -49.543   0.374 -17.832  0.00  0.00    +0.000 A 
ATOM     23  H   UNL     1     -48.671   1.437 -14.974  0.00  0.00    +0.000 HD
ENDROOT
BRANCH   7  24
ATOM     24  C   UNL     1     -48.866  -3.056 -23.702  0.00  0.00    +0.000 A 
ATOM     25  C   UNL     1     -49.591  -3.628 -24.761  0.00  0.00    +0.000 A 
ATOM     26  F   UNL     1     -50.698  -4.373 -24.516  0.00  0.00    +0.000 F 
ATOM     27  C   UNL     1     -49.160  -3.458 -26.080  0.00  0.00    +0.000 A 
ATOM     28  C   UNL     1     -48.005  -2.722 -26.352  0.00  0.00    +0.000 A 
ATOM     29  C   UNL     1     -47.276  -2.154 -25.305  0.00  0.00    +0.000 A 
ATOM     30  C   UNL     1     -47.698  -2.317 -23.984  0.00  0.00    +0.000 A 
ATOM     31  F   UNL     1     -46.966  -1.765 -22.984  0.00  0.00    +0.000 F 
ENDBRANCH   7  24
TORSDOF 1
