REMARK  Name = ZINC000096181314 ZINC96181314 PubChem-97457186
REMARK  3 active torsions:
REMARK  status: ('A' for Active; 'I' for Inactive)
REMARK    1  A    between atoms: C_5  and  C_8
REMARK    2  A    between atoms: C_9  and  C_13
REMARK    3  A    between atoms: C_14  and  N_23
REMARK                            x       y       z     vdW  Elec       q    Type
REMARK                         _______ _______ _______ _____ _____    ______ ____
ROOT
ATOM      1  C   UNL     1     -50.135   0.115 -20.080  0.00  0.00    +0.000 C 
ATOM      2  C   UNL     1     -51.666  -0.035 -19.994  0.00  0.00    +0.000 C 
ATOM      3  C   UNL     1     -51.972  -1.095 -18.928  0.00  0.00    +0.000 C 
ATOM      4  C   UNL     1     -50.632  -1.544 -18.504  0.00  0.00    +0.000 C 
ATOM      5  C   UNL     1     -48.188  -0.936 -18.783  0.00  0.00    +0.000 C 
ATOM      6  O   UNL     1     -50.435  -2.420 -17.621  0.00  0.00    +0.000 OA
ATOM      7  N   UNL     1     -49.586  -0.879 -19.178  0.00  0.00    +0.000 N 
ENDROOT
BRANCH   1  12
ATOM      8  C   UNL     1     -48.283  -0.644 -25.508  0.00  0.00    +0.000 C 
ATOM      9  C   UNL     1     -48.760  -0.458 -24.113  0.00  0.00    +0.000 A 
ATOM     10  C   UNL     1     -48.611   0.782 -23.484  0.00  0.00    +0.000 A 
ATOM     11  C   UNL     1     -49.059   0.959 -22.172  0.00  0.00    +0.000 A 
ATOM     12  C   UNL     1     -49.656  -0.103 -21.483  0.00  0.00    +0.000 A 
ATOM     13  C   UNL     1     -49.807  -1.345 -22.119  0.00  0.00    +0.000 A 
ATOM     14  C   UNL     1     -49.358  -1.521 -23.431  0.00  0.00    +0.000 A 
ENDBRANCH   1  12
BRANCH   2  15
ATOM     15  C   UNL     1     -52.303   1.269 -19.644  0.00  0.00    +0.000 C 
ATOM     16  O   UNL     1     -53.138   1.772 -20.441  0.00  0.00    +0.000 OA
ATOM     17  N   UNL     1     -51.958   1.928 -18.416  0.00  0.00    +0.000 NA
BRANCH  17  18
ATOM     18  C   UNL     1     -52.467   3.181 -17.940  0.00  0.00    +0.000 A 
ATOM     19  C   UNL     1     -53.401   3.925 -18.675  0.00  0.00    +0.000 A 
ATOM     20  C   UNL     1     -53.866   5.140 -18.169  0.00  0.00    +0.000 A 
ATOM     21  C   UNL     1     -53.398   5.603 -16.939  0.00  0.00    +0.000 A 
ATOM     22  C   UNL     1     -52.468   4.839 -16.232  0.00  0.00    +0.000 A 
ATOM     23  C   UNL     1     -51.958   5.316 -14.921  0.00  0.00    +0.000 C 
ATOM     24  N   UNL     1     -52.028   3.657 -16.743  0.00  0.00    +0.000 NA
ENDBRANCH  17  18
ENDBRANCH   2  15
TORSDOF 3
