REMARK  Name = ZINC000005372519 ZINC05372519 PubChem-92261928
REMARK  9 active torsions:
REMARK  status: ('A' for Active; 'I' for Inactive)
REMARK    1  A    between atoms: N_14  and  C_20
REMARK    2  A    between atoms: C_20  and  C_21
REMARK    3  A    between atoms: C_21  and  O_22
REMARK    4  A    between atoms: C_21  and  C_24
REMARK    5  A    between atoms: C_24  and  O_25
REMARK    6  A    between atoms: C_24  and  C_27
REMARK    7  A    between atoms: C_27  and  O_28
REMARK    8  A    between atoms: C_27  and  C_30
REMARK    9  A    between atoms: C_30  and  O_31
REMARK                            x       y       z     vdW  Elec       q    Type
REMARK                         _______ _______ _______ _____ _____    ______ ____
ROOT
ATOM      1  C   UNL     1     -49.201  -0.830 -25.572  0.00  0.00    +0.000 C 
ATOM      2  C   UNL     1     -49.241  -0.689 -24.088  0.00  0.00    +0.000 A 
ATOM      3  C   UNL     1     -50.218   0.130 -23.519  0.00  0.00    +0.000 A 
ATOM      4  C   UNL     1     -50.293   0.288 -22.133  0.00  0.00    +0.000 A 
ATOM      5  C   UNL     1     -51.266   1.126 -21.602  0.00  0.00    +0.000 A 
ATOM      6  C   UNL     1     -51.344   1.312 -20.227  0.00  0.00    +0.000 A 
ATOM      7  C   UNL     1     -52.289   2.159 -19.636  0.00  0.00    +0.000 A 
ATOM      8  O   UNL     1     -53.126   2.784 -20.342  0.00  0.00    +0.000 OA
ATOM      9  N   UNL     1     -52.303   2.317 -18.285  0.00  0.00    +0.000 N 
ATOM     10  C   UNL     1     -51.425   1.682 -17.461  0.00  0.00    +0.000 A 
ATOM     11  O   UNL     1     -51.488   1.873 -16.219  0.00  0.00    +0.000 OA
ATOM     12  C   UNL     1     -50.457   0.820 -17.978  0.00  0.00    +0.000 A 
ATOM     13  C   UNL     1     -50.382   0.596 -19.358  0.00  0.00    +0.000 A 
ATOM     14  N   UNL     1     -49.453  -0.249 -19.915  0.00  0.00    +0.000 N 
ATOM     15  C   UNL     1     -49.380  -0.389 -21.283  0.00  0.00    +0.000 A 
ATOM     16  C   UNL     1     -48.392  -1.195 -21.876  0.00  0.00    +0.000 A 
ATOM     17  C   UNL     1     -48.318  -1.350 -23.262  0.00  0.00    +0.000 A 
ATOM     18  C   UNL     1     -47.257  -2.233 -23.825  0.00  0.00    +0.000 C 
ATOM     19  H   UNL     1     -52.977   2.914 -17.887  0.00  0.00    +0.000 HD
ENDROOT
BRANCH  14  20
ATOM     20  C   UNL     1     -48.521  -0.982 -19.041  0.00  0.00    +0.000 C 
BRANCH  20  21
ATOM     21  C   UNL     1     -49.069  -2.349 -18.606  0.00  0.00    +0.000 C 
BRANCH  21  22
ATOM     22  O   UNL     1     -50.438  -2.441 -18.873  0.00  0.00    +0.000 OA
ATOM     23  H   UNL     1     -50.586  -2.371 -19.829  0.00  0.00    +0.000 HD
ENDBRANCH  21  22
BRANCH  21  24
ATOM     24  C   UNL     1     -48.311  -3.509 -19.253  0.00  0.00    +0.000 C 
BRANCH  24  25
ATOM     25  O   UNL     1     -46.978  -3.499 -18.831  0.00  0.00    +0.000 OA
ATOM     26  H   UNL     1     -46.942  -3.617 -17.869  0.00  0.00    +0.000 HD
ENDBRANCH  24  25
BRANCH  24  27
ATOM     27  C   UNL     1     -48.956  -4.856 -18.922  0.00  0.00    +0.000 C 
BRANCH  27  28
ATOM     28  O   UNL     1     -48.723  -5.197 -17.588  0.00  0.00    +0.000 OA
ATOM     29  H   UNL     1     -47.769  -5.284 -17.438  0.00  0.00    +0.000 HD
ENDBRANCH  27  28
BRANCH  27  30
ATOM     30  C   UNL     1     -48.420  -5.951 -19.829  0.00  0.00    +0.000 C 
BRANCH  30  31
ATOM     31  O   UNL     1     -49.477  -6.699 -20.347  0.00  0.00    +0.000 OA
ATOM     32  H   UNL     1     -49.973  -7.106 -19.619  0.00  0.00    +0.000 HD
ENDBRANCH  30  31
ENDBRANCH  27  30
ENDBRANCH  24  27
ENDBRANCH  21  24
ENDBRANCH  20  21
ENDBRANCH  14  20
TORSDOF 9
