REMARK  Name = ZINC000009312448
REMARK  7 active torsions:
REMARK  status: ('A' for Active; 'I' for Inactive)
REMARK    1  A    between atoms: C_1  and  C_12
REMARK    2  A    between atoms: C_2  and  C_19
REMARK    3  A    between atoms: C_3  and  O_4
REMARK    4  A    between atoms: N_7  and  C_31
REMARK    5  A    between atoms: C_9  and  C_16
REMARK    6  A    between atoms: C_19  and  C_21
REMARK    7  A    between atoms: C_31  and  C_32
REMARK                            x       y       z     vdW  Elec       q    Type
REMARK                         _______ _______ _______ _____ _____    ______ ____
ROOT
ATOM      1  C   UNL     1     -49.214   0.453 -21.579  0.00  0.00    +0.000 C 
ATOM      2  C   UNL     1     -49.492   0.484 -20.090  0.00  0.00    +0.000 C 
ATOM      3  C   UNL     1     -50.721   0.945 -19.857  0.00  0.00    +0.000 C 
ATOM      4  C   UNL     1     -51.358   1.213 -21.120  0.00  0.00    +0.000 C 
ATOM      5  O   UNL     1     -52.512   1.694 -21.276  0.00  0.00    +0.000 OA
ATOM      6  N   UNL     1     -50.470   0.897 -22.178  0.00  0.00    +0.000 N 
ENDROOT
BRANCH   1  10
ATOM      7  C   UNL     1     -48.225  -3.509 -22.987  0.00  0.00    +0.000 A 
ATOM      8  C   UNL     1     -49.388  -3.297 -22.224  0.00  0.00    +0.000 A 
ATOM      9  C   UNL     1     -49.711  -2.022 -21.758  0.00  0.00    +0.000 A 
ATOM     10  C   UNL     1     -48.874  -0.933 -22.044  0.00  0.00    +0.000 A 
ATOM     11  C   UNL     1     -47.718  -1.133 -22.802  0.00  0.00    +0.000 A 
ATOM     12  C   UNL     1     -47.395  -2.409 -23.268  0.00  0.00    +0.000 A 
BRANCH   7  14
ATOM     13  C   UNL     1     -46.905  -4.751 -24.686  0.00  0.00    +0.000 C 
ATOM     14  C   UNL     1     -47.855  -4.885 -23.508  0.00  0.00    +0.000 C 
ATOM     15  C   UNL     1     -47.167  -5.682 -22.415  0.00  0.00    +0.000 C 
ATOM     16  C   UNL     1     -49.066  -5.681 -23.975  0.00  0.00    +0.000 C 
ENDBRANCH   7  14
ENDBRANCH   1  10
BRANCH   3  17
ATOM     17  O   UNL     1     -51.279   1.185 -18.606  0.00  0.00    +0.000 OA
ATOM     18  H   UNL     1     -50.795   0.981 -17.830  0.00  0.00    +0.000 HD
ENDBRANCH   3  17
BRANCH   2  19
ATOM     19  C   UNL     1     -48.486   0.153 -19.062  0.00  0.00    +0.000 C 
ATOM     20  O   UNL     1     -47.280   0.046 -19.415  0.00  0.00    +0.000 OA
BRANCH  19  21
ATOM     21  C   UNL     1     -48.849  -0.105 -17.652  0.00  0.00    +0.000 A 
ATOM     22  C   UNL     1     -48.588   0.868 -16.673  0.00  0.00    +0.000 A 
ATOM     23  C   UNL     1     -48.901   0.628 -15.331  0.00  0.00    +0.000 A 
ATOM     24  C   UNL     1     -49.469  -0.591 -14.958  0.00  0.00    +0.000 A 
ATOM     25  C   UNL     1     -49.697  -1.583 -15.921  0.00  0.00    +0.000 A 
ATOM     26  C   UNL     1     -49.396  -1.338 -17.263  0.00  0.00    +0.000 A 
ATOM     27  O   UNL     1     -50.223  -2.813 -15.519  0.00  0.00    +0.000 OA
ATOM     28  C   UNL     1     -50.260  -3.176 -14.137  0.00  0.00    +0.000 C 
ATOM     29  C   UNL     1     -50.631  -1.963 -13.281  0.00  0.00    +0.000 C 
ATOM     30  O   UNL     1     -49.813  -0.843 -13.627  0.00  0.00    +0.000 OA
ENDBRANCH  19  21
ENDBRANCH   2  19
BRANCH   6  31
ATOM     31  C   UNL     1     -50.636   1.288 -23.570  0.00  0.00    +0.000 C 
BRANCH  31  32
ATOM     32  C   UNL     1     -50.780   0.077 -24.427  0.00  0.00    +0.000 A 
ATOM     33  C   UNL     1     -49.861  -0.172 -25.448  0.00  0.00    +0.000 A 
ATOM     34  C   UNL     1     -49.980  -1.326 -26.224  0.00  0.00    +0.000 A 
ATOM     35  C   UNL     1     -51.022  -2.220 -25.960  0.00  0.00    +0.000 A 
ATOM     36  N   UNL     1     -51.904  -1.962 -24.957  0.00  0.00    +0.000 NA
ATOM     37  C   UNL     1     -51.803  -0.844 -24.190  0.00  0.00    +0.000 A 
ENDBRANCH  31  32
ENDBRANCH   6  31
TORSDOF 7
