REMARK  Name = ZINC000005372514 ZINC05372514 PubChem-92261926
REMARK  9 active torsions:
REMARK  status: ('A' for Active; 'I' for Inactive)
REMARK    1  A    between atoms: N_14  and  C_20
REMARK    2  A    between atoms: C_20  and  C_21
REMARK    3  A    between atoms: C_21  and  O_22
REMARK    4  A    between atoms: C_21  and  C_24
REMARK    5  A    between atoms: C_24  and  O_25
REMARK    6  A    between atoms: C_24  and  C_27
REMARK    7  A    between atoms: C_27  and  O_28
REMARK    8  A    between atoms: C_27  and  C_30
REMARK    9  A    between atoms: C_30  and  O_31
REMARK                            x       y       z     vdW  Elec       q    Type
REMARK                         _______ _______ _______ _____ _____    ______ ____
ROOT
ATOM      1  C   UNL     1     -48.997  -0.674 -25.646  0.00  0.00    +0.000 C 
ATOM      2  C   UNL     1     -49.127  -0.633 -24.161  0.00  0.00    +0.000 A 
ATOM      3  C   UNL     1     -50.057   0.240 -23.593  0.00  0.00    +0.000 A 
ATOM      4  C   UNL     1     -50.212   0.310 -22.206  0.00  0.00    +0.000 A 
ATOM      5  C   UNL     1     -51.143   1.195 -21.674  0.00  0.00    +0.000 A 
ATOM      6  C   UNL     1     -51.306   1.281 -20.296  0.00  0.00    +0.000 A 
ATOM      7  C   UNL     1     -52.221   2.157 -19.701  0.00  0.00    +0.000 A 
ATOM      8  O   UNL     1     -52.948   2.908 -20.406  0.00  0.00    +0.000 OA
ATOM      9  N   UNL     1     -52.330   2.202 -18.346  0.00  0.00    +0.000 N 
ATOM     10  C   UNL     1     -51.578   1.423 -17.520  0.00  0.00    +0.000 A 
ATOM     11  O   UNL     1     -51.724   1.512 -16.274  0.00  0.00    +0.000 OA
ATOM     12  C   UNL     1     -50.645   0.524 -18.042  0.00  0.00    +0.000 A 
ATOM     13  C   UNL     1     -50.477   0.415 -19.427  0.00  0.00    +0.000 A 
ATOM     14  N   UNL     1     -49.576  -0.453 -19.989  0.00  0.00    +0.000 N 
ATOM     15  C   UNL     1     -49.428  -0.511 -21.356  0.00  0.00    +0.000 A 
ATOM     16  C   UNL     1     -48.493  -1.381 -21.945  0.00  0.00    +0.000 A 
ATOM     17  C   UNL     1     -48.339  -1.449 -23.331  0.00  0.00    +0.000 A 
ATOM     18  C   UNL     1     -47.333  -2.394 -23.894  0.00  0.00    +0.000 C 
ATOM     19  H   UNL     1     -52.979   2.824 -17.945  0.00  0.00    +0.000 HD
ENDROOT
BRANCH  14  20
ATOM     20  C   UNL     1     -48.772  -1.326 -19.124  0.00  0.00    +0.000 C 
BRANCH  20  21
ATOM     21  C   UNL     1     -49.419  -2.706 -18.994  0.00  0.00    +0.000 C 
BRANCH  21  22
ATOM     22  O   UNL     1     -50.023  -2.833 -17.743  0.00  0.00    +0.000 OA
ATOM     23  H   UNL     1     -49.349  -2.760 -17.049  0.00  0.00    +0.000 HD
ENDBRANCH  21  22
BRANCH  21  24
ATOM     24  C   UNL     1     -48.409  -3.841 -19.191  0.00  0.00    +0.000 C 
BRANCH  24  25
ATOM     25  O   UNL     1     -47.103  -3.352 -19.266  0.00  0.00    +0.000 OA
ATOM     26  H   UNL     1     -47.011  -2.794 -20.054  0.00  0.00    +0.000 HD
ENDBRANCH  24  25
BRANCH  24  27
ATOM     27  C   UNL     1     -48.709  -4.749 -20.388  0.00  0.00    +0.000 C 
BRANCH  27  28
ATOM     28  O   UNL     1     -50.013  -4.582 -20.861  0.00  0.00    +0.000 OA
ATOM     29  H   UNL     1     -50.643  -4.854 -20.175  0.00  0.00    +0.000 HD
ENDBRANCH  27  28
BRANCH  27  30
ATOM     30  C   UNL     1     -48.414  -6.217 -20.099  0.00  0.00    +0.000 C 
BRANCH  30  31
ATOM     31  O   UNL     1     -49.580  -6.905 -19.756  0.00  0.00    +0.000 OA
ATOM     32  H   UNL     1     -49.964  -6.512 -18.957  0.00  0.00    +0.000 HD
ENDBRANCH  30  31
ENDBRANCH  27  30
ENDBRANCH  24  27
ENDBRANCH  21  24
ENDBRANCH  20  21
ENDBRANCH  14  20
TORSDOF 9
