REMARK  Name = ZINC000021788064 ZINC21788064
REMARK  6 active torsions:
REMARK  status: ('A' for Active; 'I' for Inactive)
REMARK    1  A    between atoms: N_5  and  C_14
REMARK    2  A    between atoms: C_12  and  C_21
REMARK    3  A    between atoms: C_24  and  O_29
REMARK    4  A    between atoms: C_25  and  O_27
REMARK    5  A    between atoms: O_29  and  C_30
REMARK    6  A    between atoms: C_30  and  C_31
REMARK                            x       y       z     vdW  Elec       q    Type
REMARK                         _______ _______ _______ _____ _____    ______ ____
ROOT
ATOM      1  C   UNL     1     -46.830  -1.669 -22.438  0.00  0.00    +0.000 C 
ATOM      2  C   UNL     1     -47.969  -1.043 -21.710  0.00  0.00    +0.000 A 
ATOM      3  C   UNL     1     -49.185  -0.612 -22.244  0.00  0.00    +0.000 A 
ATOM      4  C   UNL     1     -49.809   0.004 -21.150  0.00  0.00    +0.000 A 
ATOM      5  N   UNL     1     -49.022  -0.139 -20.057  0.00  0.00    +0.000 N 
ATOM      6  N   UNL     1     -47.905  -0.759 -20.399  0.00  0.00    +0.000 NA
ATOM      7  N   UNL     1     -51.040   0.749 -21.116  0.00  0.00    +0.000 N 
ATOM      8  C   UNL     1     -51.859   1.239 -22.181  0.00  0.00    +0.000 C 
ATOM      9  O   UNL     1     -52.911   1.869 -21.901  0.00  0.00    +0.000 OA
ATOM     10  C   UNL     1     -51.511   1.039 -23.606  0.00  0.00    +0.000 C 
ATOM     11  S   UNL     1     -51.411  -0.731 -23.921  0.00  0.00    +0.000 S 
ATOM     12  C   UNL     1     -49.610  -0.662 -23.704  0.00  0.00    +0.000 C 
ATOM     13  H   UNL     1     -51.373   0.954 -20.212  0.00  0.00    +0.000 HD
ENDROOT
BRANCH   5  14
ATOM     14  C   UNL     1     -49.270   0.321 -18.713  0.00  0.00    +0.000 A 
ATOM     15  C   UNL     1     -50.512   0.860 -18.338  0.00  0.00    +0.000 A 
ATOM     16  C   UNL     1     -50.737   1.288 -17.027  0.00  0.00    +0.000 A 
ATOM     17  C   UNL     1     -49.723   1.180 -16.073  0.00  0.00    +0.000 A 
ATOM     18  C   UNL     1     -48.485   0.642 -16.431  0.00  0.00    +0.000 A 
ATOM     19  C   UNL     1     -48.261   0.213 -17.742  0.00  0.00    +0.000 A 
ATOM     20 CL   UNL     1     -47.212   0.505 -15.237  0.00  0.00    +0.000 Cl
ENDBRANCH   5  14
BRANCH  12  21
ATOM     21  C   UNL     1     -48.990  -1.784 -24.482  0.00  0.00    +0.000 A 
ATOM     22  C   UNL     1     -48.000  -1.541 -25.443  0.00  0.00    +0.000 A 
ATOM     23  C   UNL     1     -47.441  -2.602 -26.156  0.00  0.00    +0.000 A 
ATOM     24  C   UNL     1     -47.864  -3.920 -25.919  0.00  0.00    +0.000 A 
ATOM     25  C   UNL     1     -48.852  -4.168 -24.953  0.00  0.00    +0.000 A 
ATOM     26  C   UNL     1     -49.409  -3.095 -24.239  0.00  0.00    +0.000 A 
BRANCH  25  27
ATOM     27  O   UNL     1     -49.265  -5.485 -24.720  0.00  0.00    +0.000 OA
ATOM     28  C   UNL     1     -48.864  -6.226 -23.576  0.00  0.00    +0.000 C 
ENDBRANCH  25  27
BRANCH  24  29
ATOM     29  O   UNL     1     -47.314  -4.997 -26.626  0.00  0.00    +0.000 OA
BRANCH  29  30
ATOM     30  C   UNL     1     -46.567  -4.844 -27.829  0.00  0.00    +0.000 C 
BRANCH  30  31
ATOM     31  C   UNL     1     -47.463  -4.973 -29.013  0.00  0.00    +0.000 C 
ATOM     32  O   UNL     1     -48.038  -3.956 -29.481  0.00  0.00    +0.000 OA
ATOM     33  N   UNL     1     -47.684  -6.248 -29.604  0.00  0.00    +0.000 N 
ATOM     34  H   UNL     1     -47.234  -7.044 -29.239  0.00  0.00    +0.000 HD
ATOM     35  H   UNL     1     -48.286  -6.334 -30.378  0.00  0.00    +0.000 HD
ENDBRANCH  30  31
ENDBRANCH  29  30
ENDBRANCH  24  29
ENDBRANCH  12  21
TORSDOF 6
