REMARK  Name = ZINC000096181382 ZINC96181382 PubChem-97457252
REMARK  4 active torsions:
REMARK  status: ('A' for Active; 'I' for Inactive)
REMARK    1  A    between atoms: C_1  and  C_12
REMARK    2  A    between atoms: C_2  and  C_15
REMARK    3  A    between atoms: N_17  and  C_19
REMARK    4  A    between atoms: C_19  and  C_20
REMARK                            x       y       z     vdW  Elec       q    Type
REMARK                         _______ _______ _______ _____ _____    ______ ____
ROOT
ATOM      1  C   UNL     1     -50.138   0.331 -21.113  0.00  0.00    +0.000 C 
ATOM      2  C   UNL     1     -51.315   0.113 -20.145  0.00  0.00    +0.000 C 
ATOM      3  C   UNL     1     -50.768  -0.545 -18.872  0.00  0.00    +0.000 C 
ATOM      4  C   UNL     1     -49.351  -0.788 -19.210  0.00  0.00    +0.000 C 
ATOM      5  O   UNL     1     -48.531  -1.334 -18.427  0.00  0.00    +0.000 OA
ATOM      6  N   UNL     1     -48.997  -0.320 -20.495  0.00  0.00    +0.000 N 
ATOM      7  C   UNL     1     -47.629  -0.173 -20.964  0.00  0.00    +0.000 C 
ENDROOT
BRANCH   1  12
ATOM      8  C   UNL     1     -51.283  -1.866 -26.340  0.00  0.00    +0.000 C 
ATOM      9  C   UNL     1     -50.991  -1.309 -24.994  0.00  0.00    +0.000 A 
ATOM     10  C   UNL     1     -51.301  -2.049 -23.850  0.00  0.00    +0.000 A 
ATOM     11  C   UNL     1     -51.026  -1.526 -22.583  0.00  0.00    +0.000 A 
ATOM     12  C   UNL     1     -50.436  -0.258 -22.458  0.00  0.00    +0.000 A 
ATOM     13  C   UNL     1     -50.131   0.480 -23.606  0.00  0.00    +0.000 A 
ATOM     14  C   UNL     1     -50.407  -0.045 -24.873  0.00  0.00    +0.000 A 
ENDBRANCH   1  12
BRANCH   2  15
ATOM     15  C   UNL     1     -52.044   1.391 -19.851  0.00  0.00    +0.000 C 
ATOM     16  O   UNL     1     -52.638   1.973 -20.795  0.00  0.00    +0.000 OA
ATOM     17  N   UNL     1     -52.087   1.973 -18.542  0.00  0.00    +0.000 N 
ATOM     18  H   UNL     1     -52.586   2.814 -18.425  0.00  0.00    +0.000 HD
BRANCH  17  19
ATOM     19  C   UNL     1     -51.435   1.395 -17.377  0.00  0.00    +0.000 C 
BRANCH  19  20
ATOM     20  C   UNL     1     -51.306   2.423 -16.310  0.00  0.00    +0.000 A 
ATOM     21  C   UNL     1     -51.929   3.667 -16.458  0.00  0.00    +0.000 A 
ATOM     22  C   UNL     1     -51.825   4.626 -15.445  0.00  0.00    +0.000 A 
ATOM     23  C   UNL     1     -51.102   4.340 -14.283  0.00  0.00    +0.000 A 
ATOM     24  C   UNL     1     -50.485   3.095 -14.132  0.00  0.00    +0.000 A 
ATOM     25  C   UNL     1     -50.589   2.135 -15.144  0.00  0.00    +0.000 A 
ENDBRANCH  19  20
ENDBRANCH  17  19
ENDBRANCH   2  15
TORSDOF 4
