REMARK  Name = ZINC000018195610 ZINC18195610
REMARK  2 active torsions:
REMARK  status: ('A' for Active; 'I' for Inactive)
REMARK    1  A    between atoms: C_6  and  C_21
REMARK    2  A    between atoms: C_11  and  O_12
REMARK                            x       y       z     vdW  Elec       q    Type
REMARK                         _______ _______ _______ _____ _____    ______ ____
ROOT
ATOM      1  C   UNL     1     -48.265  -2.962 -22.481  0.00  0.00    +0.000 C 
ATOM      2  C   UNL     1     -47.866  -1.661 -23.161  0.00  0.00    +0.000 C 
ATOM      3  C   UNL     1     -49.106  -0.814 -23.455  0.00  0.00    +0.000 C 
ATOM      4  C   UNL     1     -49.725  -0.198 -22.226  0.00  0.00    +0.000 C 
ATOM      5  C   UNL     1     -48.991   0.036 -21.097  0.00  0.00    +0.000 C 
ATOM      6  C   UNL     1     -49.620   0.610 -19.821  0.00  0.00    +0.000 C 
ATOM      7  C   UNL     1     -51.003   1.126 -20.071  0.00  0.00    +0.000 A 
ATOM      8  C   UNL     1     -51.686   0.892 -21.216  0.00  0.00    +0.000 A 
ATOM      9  N   UNL     1     -52.928   1.406 -21.161  0.00  0.00    +0.000 N 
ATOM     10  N   UNL     1     -53.060   1.974 -19.965  0.00  0.00    +0.000 NA
ATOM     11  C   UNL     1     -51.902   1.808 -19.290  0.00  0.00    +0.000 A 
ATOM     12  N   UNL     1     -51.103   0.207 -22.316  0.00  0.00    +0.000 N 
ATOM     13  C   UNL     1     -47.547  -0.300 -21.081  0.00  0.00    +0.000 C 
ATOM     14  O   UNL     1     -46.847  -0.056 -20.062  0.00  0.00    +0.000 OA
ATOM     15  C   UNL     1     -46.881  -0.884 -22.290  0.00  0.00    +0.000 C 
ATOM     16  C   UNL     1     -47.190  -1.998 -24.472  0.00  0.00    +0.000 C 
ATOM     17  H   UNL     1     -53.609   1.370 -21.871  0.00  0.00    +0.000 HD
ATOM     18  H   UNL     1     -51.632   0.013 -23.123  0.00  0.00    +0.000 HD
ENDROOT
BRANCH   6  19
ATOM     19  C   UNL     1     -49.633  -0.406 -18.716  0.00  0.00    +0.000 A 
ATOM     20  C   UNL     1     -50.029  -1.731 -18.944  0.00  0.00    +0.000 A 
ATOM     21  C   UNL     1     -50.037  -2.647 -17.890  0.00  0.00    +0.000 A 
ATOM     22  C   UNL     1     -49.652  -2.223 -16.617  0.00  0.00    +0.000 A 
ATOM     23  N   UNL     1     -49.274  -0.932 -16.412  0.00  0.00    +0.000 NA
ATOM     24  C   UNL     1     -49.259  -0.025 -17.425  0.00  0.00    +0.000 A 
ENDBRANCH   6  19
BRANCH  11  25
ATOM     25  O   UNL     1     -51.682   2.261 -17.995  0.00  0.00    +0.000 OA
ATOM     26  H   UNL     1     -52.359   2.720 -17.538  0.00  0.00    +0.000 HD
ENDBRANCH  11  25
TORSDOF 2
