MODEL 1
REMARK VINA RESULT:      -7.1      0.000      0.000
REMARK  Name = ZINC000031811413
REMARK  3 active torsions:
REMARK  status: ('A' for Active; 'I' for Inactive)
REMARK    1  A    between atoms: C_1  and  C_27
REMARK    2  A    between atoms: C_24  and  O_33
REMARK    3  A    between atoms: C_29  and  O_30
REMARK                            x       y       z     vdW  Elec       q    Type
REMARK                         _______ _______ _______ _____ _____    ______ ____
ROOT
ATOM      1  C   UNL     1     -44.920 -17.110 -23.401  0.00  0.00    +0.000 C 
ATOM      2  S   UNL     1     -43.436 -17.448 -24.389  0.00  0.00    +0.000 S 
ATOM      3  C   UNL     1     -44.460 -17.493 -25.870  0.00  0.00    +0.000 C 
ATOM      4  C   UNL     1     -44.426 -16.161 -26.517  0.00  0.00    +0.000 C 
ATOM      5  O   UNL     1     -44.001 -16.078 -27.699  0.00  0.00    +0.000 OA
ATOM      6  N   UNL     1     -44.866 -14.971 -25.856  0.00  0.00    +0.000 N 
ATOM      7  C   UNL     1     -45.350 -14.767 -24.517  0.00  0.00    +0.000 A 
ATOM      8  C   UNL     1     -45.314 -15.643 -23.425  0.00  0.00    +0.000 A 
ATOM      9  C   UNL     1     -45.859 -14.879 -22.388  0.00  0.00    +0.000 A 
ATOM     10  C   UNL     1     -46.161 -15.313 -20.995  0.00  0.00    +0.000 C 
ATOM     11  N   UNL     1     -46.151 -13.641 -22.823  0.00  0.00    +0.000 NA
ATOM     12  N   UNL     1     -45.848 -13.580 -24.107  0.00  0.00    +0.000 N 
ATOM     13  H   UNL     1     -44.832 -14.157 -26.410  0.00  0.00    +0.000 HD
ATOM     14  C   UNL     1     -46.017 -12.385 -24.884  0.00  0.00    +0.000 A 
ATOM     15  N   UNL     1     -45.877 -11.160 -24.293  0.00  0.00    +0.000 NA
ATOM     16  C   UNL     1     -46.061  -9.999 -24.999  0.00  0.00    +0.000 A 
ATOM     17  N   UNL     1     -46.407 -10.038 -26.320  0.00  0.00    +0.000 NA
ATOM     18  C   UNL     1     -46.560 -11.250 -26.904  0.00  0.00    +0.000 A 
ATOM     19  N   UNL     1     -46.950 -11.487 -28.162  0.00  0.00    +0.000 N 
ATOM     20  C   UNL     1     -47.002 -12.847 -28.202  0.00  0.00    +0.000 A 
ATOM     21  N   UNL     1     -46.667 -13.447 -27.026  0.00  0.00    +0.000 NA
ATOM     22  C   UNL     1     -46.383 -12.406 -26.230  0.00  0.00    +0.000 A 
ATOM     23  H   UNL     1     -47.148 -10.842 -28.878  0.00  0.00    +0.000 HD
ENDROOT
BRANCH   1  27
ATOM     24  C   UNL     1     -44.398 -18.792 -19.467  0.00  0.00    +0.000 A 
ATOM     25  C   UNL     1     -43.384 -18.022 -20.061  0.00  0.00    +0.000 A 
ATOM     26  C   UNL     1     -43.562 -17.481 -21.335  0.00  0.00    +0.000 A 
ATOM     27  C   UNL     1     -44.753 -17.702 -22.033  0.00  0.00    +0.000 A 
ATOM     28  C   UNL     1     -45.769 -18.468 -21.443  0.00  0.00    +0.000 A 
ATOM     29  C   UNL     1     -45.593 -19.011 -20.167  0.00  0.00    +0.000 A 
BRANCH  29  30
ATOM     30  O   UNL     1     -46.609 -19.768 -19.598  0.00  0.00    +0.000 OA
ATOM     31  H   UNL     1     -47.141 -19.402 -18.918  0.00  0.00    +0.000 HD
ENDBRANCH  29  30
BRANCH  24  33
ATOM     32  C   UNL     1     -42.964 -19.598 -17.616  0.00  0.00    +0.000 C 
ATOM     33  O   UNL     1     -44.239 -19.344 -18.192  0.00  0.00    +0.000 OA
ENDBRANCH  24  33
ENDBRANCH   1  27
TORSDOF 3
ENDMDL
MODEL 2
REMARK VINA RESULT:      -6.8      7.827     13.050
REMARK  Name = ZINC000031811413
REMARK  3 active torsions:
REMARK  status: ('A' for Active; 'I' for Inactive)
REMARK    1  A    between atoms: C_1  and  C_27
REMARK    2  A    between atoms: C_24  and  O_33
REMARK    3  A    between atoms: C_29  and  O_30
REMARK                            x       y       z     vdW  Elec       q    Type
REMARK                         _______ _______ _______ _____ _____    ______ ____
ROOT
ATOM      1  C   UNL     1     -45.163  -7.467 -32.930  0.00  0.00    +0.000 C 
ATOM      2  S   UNL     1     -46.221  -8.251 -34.177  0.00  0.00    +0.000 S 
ATOM      3  C   UNL     1     -45.158  -9.704 -34.134  0.00  0.00    +0.000 C 
ATOM      4  C   UNL     1     -45.743 -10.699 -33.205  0.00  0.00    +0.000 C 
ATOM      5  O   UNL     1     -46.044 -11.836 -33.655  0.00  0.00    +0.000 OA
ATOM      6  N   UNL     1     -45.967 -10.422 -31.820  0.00  0.00    +0.000 N 
ATOM      7  C   UNL     1     -45.760  -9.218 -31.059  0.00  0.00    +0.000 A 
ATOM      8  C   UNL     1     -45.490  -7.923 -31.518  0.00  0.00    +0.000 A 
ATOM      9  C   UNL     1     -45.461  -7.169 -30.340  0.00  0.00    +0.000 A 
ATOM     10  C   UNL     1     -45.126  -5.726 -30.187  0.00  0.00    +0.000 C 
ATOM     11  N   UNL     1     -45.735  -7.949 -29.279  0.00  0.00    +0.000 NA
ATOM     12  N   UNL     1     -45.909  -9.183 -29.717  0.00  0.00    +0.000 N 
ATOM     13  H   UNL     1     -46.321 -11.180 -31.301  0.00  0.00    +0.000 HD
ATOM     14  C   UNL     1     -46.239 -10.272 -28.843  0.00  0.00    +0.000 A 
ATOM     15  N   UNL     1     -46.985 -10.045 -27.720  0.00  0.00    +0.000 NA
ATOM     16  C   UNL     1     -47.293 -11.058 -26.847  0.00  0.00    +0.000 A 
ATOM     17  N   UNL     1     -46.844 -12.329 -27.074  0.00  0.00    +0.000 NA
ATOM     18  C   UNL     1     -46.094 -12.553 -28.180  0.00  0.00    +0.000 A 
ATOM     19  N   UNL     1     -45.522 -13.710 -28.536  0.00  0.00    +0.000 N 
ATOM     20  C   UNL     1     -44.844 -13.366 -29.665  0.00  0.00    +0.000 A 
ATOM     21  N   UNL     1     -44.973 -12.055 -30.009  0.00  0.00    +0.000 NA
ATOM     22  C   UNL     1     -45.779 -11.573 -29.052  0.00  0.00    +0.000 A 
ATOM     23  H   UNL     1     -45.578 -14.587 -28.093  0.00  0.00    +0.000 HD
ENDROOT
BRANCH   1  27
ATOM     24  C   UNL     1     -45.123  -3.198 -33.521  0.00  0.00    +0.000 A 
ATOM     25  C   UNL     1     -43.929  -3.905 -33.303  0.00  0.00    +0.000 A 
ATOM     26  C   UNL     1     -43.951  -5.289 -33.113  0.00  0.00    +0.000 A 
ATOM     27  C   UNL     1     -45.165  -5.982 -33.137  0.00  0.00    +0.000 A 
ATOM     28  C   UNL     1     -46.360  -5.279 -33.357  0.00  0.00    +0.000 A 
ATOM     29  C   UNL     1     -46.339  -3.895 -33.547  0.00  0.00    +0.000 A 
BRANCH  29  30
ATOM     30  O   UNL     1     -47.531  -3.216 -33.763  0.00  0.00    +0.000 OA
ATOM     31  H   UNL     1     -48.069  -3.434 -34.500  0.00  0.00    +0.000 HD
ENDBRANCH  29  30
BRANCH  24  33
ATOM     32  C   UNL     1     -44.089  -0.968 -33.222  0.00  0.00    +0.000 C 
ATOM     33  O   UNL     1     -45.122  -1.812 -33.712  0.00  0.00    +0.000 OA
ENDBRANCH  24  33
ENDBRANCH   1  27
TORSDOF 3
ENDMDL
MODEL 3
REMARK VINA RESULT:      -6.6      8.335     12.049
REMARK  Name = ZINC000031811413
REMARK  3 active torsions:
REMARK  status: ('A' for Active; 'I' for Inactive)
REMARK    1  A    between atoms: C_1  and  C_27
REMARK    2  A    between atoms: C_24  and  O_33
REMARK    3  A    between atoms: C_29  and  O_30
REMARK                            x       y       z     vdW  Elec       q    Type
REMARK                         _______ _______ _______ _____ _____    ______ ____
ROOT
ATOM      1  C   UNL     1     -46.347  -6.137 -29.065  0.00  0.00    +0.000 C 
ATOM      2  S   UNL     1     -47.491  -6.529 -30.417  0.00  0.00    +0.000 S 
ATOM      3  C   UNL     1     -47.700  -4.766 -30.722  0.00  0.00    +0.000 C 
ATOM      4  C   UNL     1     -46.774  -4.354 -31.803  0.00  0.00    +0.000 C 
ATOM      5  O   UNL     1     -47.259  -3.847 -32.848  0.00  0.00    +0.000 OA
ATOM      6  N   UNL     1     -45.354  -4.498 -31.699  0.00  0.00    +0.000 N 
ATOM      7  C   UNL     1     -44.544  -5.072 -30.657  0.00  0.00    +0.000 A 
ATOM      8  C   UNL     1     -44.940  -5.844 -29.559  0.00  0.00    +0.000 A 
ATOM      9  C   UNL     1     -43.726  -6.170 -28.945  0.00  0.00    +0.000 A 
ATOM     10  C   UNL     1     -43.516  -6.908 -27.669  0.00  0.00    +0.000 C 
ATOM     11  N   UNL     1     -42.697  -5.667 -29.651  0.00  0.00    +0.000 NA
ATOM     12  N   UNL     1     -43.195  -5.001 -30.677  0.00  0.00    +0.000 N 
ATOM     13  H   UNL     1     -44.848  -4.147 -32.467  0.00  0.00    +0.000 HD
ATOM     14  C   UNL     1     -42.365  -4.352 -31.651  0.00  0.00    +0.000 A 
ATOM     15  N   UNL     1     -41.137  -4.869 -31.957  0.00  0.00    +0.000 NA
ATOM     16  C   UNL     1     -40.307  -4.257 -32.861  0.00  0.00    +0.000 A 
ATOM     17  N   UNL     1     -40.684  -3.095 -33.474  0.00  0.00    +0.000 NA
ATOM     18  C   UNL     1     -41.895  -2.574 -33.161  0.00  0.00    +0.000 A 
ATOM     19  N   UNL     1     -42.409  -1.423 -33.612  0.00  0.00    +0.000 N 
ATOM     20  C   UNL     1     -43.592  -1.349 -32.943  0.00  0.00    +0.000 A 
ATOM     21  N   UNL     1     -43.819  -2.397 -32.105  0.00  0.00    +0.000 NA
ATOM     22  C   UNL     1     -42.729  -3.159 -32.276  0.00  0.00    +0.000 A 
ATOM     23  H   UNL     1     -42.027  -0.790 -34.262  0.00  0.00    +0.000 HD
ENDROOT
BRANCH   1  27
ATOM     24  C   UNL     1     -46.622  -9.215 -26.060  0.00  0.00    +0.000 A 
ATOM     25  C   UNL     1     -46.548  -9.545 -27.423  0.00  0.00    +0.000 A 
ATOM     26  C   UNL     1     -46.458  -8.541 -28.390  0.00  0.00    +0.000 A 
ATOM     27  C   UNL     1     -46.443  -7.196 -28.008  0.00  0.00    +0.000 A 
ATOM     28  C   UNL     1     -46.514  -6.862 -26.647  0.00  0.00    +0.000 A 
ATOM     29  C   UNL     1     -46.604  -7.865 -25.678  0.00  0.00    +0.000 A 
BRANCH  29  30
ATOM     30  O   UNL     1     -46.675  -7.517 -24.336  0.00  0.00    +0.000 OA
ATOM     31  H   UNL     1     -46.086  -7.906 -23.718  0.00  0.00    +0.000 HD
ENDBRANCH  29  30
BRANCH  24  33
ATOM     32  C   UNL     1     -45.624 -11.049 -24.730  0.00  0.00    +0.000 C 
ATOM     33  O   UNL     1     -46.713 -10.205 -25.076  0.00  0.00    +0.000 OA
ENDBRANCH  24  33
ENDBRANCH   1  27
TORSDOF 3
ENDMDL
