MODEL 1
REMARK VINA RESULT:      -7.0      0.000      0.000
REMARK  Name = ZINC000004257540
REMARK  8 active torsions:
REMARK  status: ('A' for Active; 'I' for Inactive)
REMARK    1  A    between atoms: C_6  and  O_23
REMARK    2  A    between atoms: C_11  and  C_12
REMARK    3  A    between atoms: O_23  and  C_24
REMARK    4  A    between atoms: C_26  and  C_36
REMARK    5  A    between atoms: C_27  and  O_28
REMARK    6  A    between atoms: C_29  and  O_30
REMARK    7  A    between atoms: C_31  and  O_32
REMARK    8  A    between atoms: C_36  and  O_37
REMARK                            x       y       z     vdW  Elec       q    Type
REMARK                         _______ _______ _______ _____ _____    ______ ____
ROOT
ATOM      1  O   UNL     1     -46.731  -8.793 -30.876  0.00  0.00    +0.000 OA
ATOM      2  C   UNL     1     -46.597  -8.735 -29.623  0.00  0.00    +0.000 A 
ATOM      3  C   UNL     1     -46.642  -9.916 -28.867  0.00  0.00    +0.000 A 
ATOM      4  C   UNL     1     -46.836 -11.167 -29.467  0.00  0.00    +0.000 A 
ATOM      5  C   UNL     1     -46.874 -12.324 -28.683  0.00  0.00    +0.000 A 
ATOM      6  C   UNL     1     -46.718 -12.243 -27.291  0.00  0.00    +0.000 A 
ATOM      7  C   UNL     1     -46.525 -10.995 -26.690  0.00  0.00    +0.000 A 
ATOM      8  C   UNL     1     -46.486  -9.834 -27.467  0.00  0.00    +0.000 A 
ATOM      9  O   UNL     1     -46.302  -8.657 -26.883  0.00  0.00    +0.000 OA
ATOM     10  C   UNL     1     -46.256  -7.521 -27.568  0.00  0.00    +0.000 A 
ATOM     11  C   UNL     1     -46.401  -7.496 -28.967  0.00  0.00    +0.000 A 
ENDROOT
BRANCH  11  12
ATOM     12  C   UNL     1     -46.338  -6.181 -29.674  0.00  0.00    +0.000 A 
ATOM     13  C   UNL     1     -47.518  -5.459 -29.919  0.00  0.00    +0.000 A 
ATOM     14  C   UNL     1     -47.480  -4.219 -30.560  0.00  0.00    +0.000 A 
ATOM     15  C   UNL     1     -46.263  -3.676 -30.977  0.00  0.00    +0.000 A 
ATOM     16  C   UNL     1     -45.075  -4.421 -30.803  0.00  0.00    +0.000 A 
ATOM     17  C   UNL     1     -45.124  -5.646 -30.131  0.00  0.00    +0.000 A 
ATOM     18  O   UNL     1     -43.848  -3.994 -31.320  0.00  0.00    +0.000 OA
ATOM     19  C   UNL     1     -43.758  -3.236 -32.523  0.00  0.00    +0.000 C 
ATOM     20  C   UNL     1     -44.026  -1.754 -32.291  0.00  0.00    +0.000 C 
ATOM     21  C   UNL     1     -45.169  -1.493 -31.317  0.00  0.00    +0.000 C 
ATOM     22  O   UNL     1     -46.258  -2.387 -31.519  0.00  0.00    +0.000 OA
ENDBRANCH  11  12
BRANCH   6  23
ATOM     23  O   UNL     1     -46.752 -13.383 -26.482  0.00  0.00    +0.000 OA
BRANCH  23  24
ATOM     24  C   UNL     1     -45.801 -13.635 -25.449  0.00  0.00    +0.000 C 
ATOM     25  O   UNL     1     -46.468 -13.774 -24.213  0.00  0.00    +0.000 OA
ATOM     26  C   UNL     1     -45.467 -13.907 -23.236  0.00  0.00    +0.000 C 
ATOM     27  C   UNL     1     -44.834 -15.317 -23.294  0.00  0.00    +0.000 C 
ATOM     28  C   UNL     1     -44.987 -15.945 -24.693  0.00  0.00    +0.000 C 
ATOM     29  C   UNL     1     -44.914 -14.865 -25.782  0.00  0.00    +0.000 C 
BRANCH  27  30
ATOM     30  O   UNL     1     -45.356 -16.171 -22.316  0.00  0.00    +0.000 OA
ATOM     31  H   UNL     1     -44.795 -16.140 -21.526  0.00  0.00    +0.000 HD
ENDBRANCH  27  30
BRANCH  28  32
ATOM     32  O   UNL     1     -46.202 -16.634 -24.790  0.00  0.00    +0.000 OA
ATOM     33  H   UNL     1     -46.452 -16.716 -25.724  0.00  0.00    +0.000 HD
ENDBRANCH  28  32
BRANCH  29  34
ATOM     34  O   UNL     1     -45.207 -15.405 -27.037  0.00  0.00    +0.000 OA
ATOM     35  H   UNL     1     -44.402 -15.419 -27.579  0.00  0.00    +0.000 HD
ENDBRANCH  29  34
BRANCH  26  36
ATOM     36  C   UNL     1     -46.000 -13.537 -21.860  0.00  0.00    +0.000 C 
BRANCH  36  37
ATOM     37  O   UNL     1     -47.179 -14.238 -21.604  0.00  0.00    +0.000 OA
ATOM     38  H   UNL     1     -47.935 -13.737 -21.949  0.00  0.00    +0.000 HD
ENDBRANCH  36  37
ENDBRANCH  26  36
ENDBRANCH  23  24
ENDBRANCH   6  23
TORSDOF 8
ENDMDL
MODEL 2
REMARK VINA RESULT:      -6.9      5.898     14.659
REMARK  Name = ZINC000004257540
REMARK  8 active torsions:
REMARK  status: ('A' for Active; 'I' for Inactive)
REMARK    1  A    between atoms: C_6  and  O_23
REMARK    2  A    between atoms: C_11  and  C_12
REMARK    3  A    between atoms: O_23  and  C_24
REMARK    4  A    between atoms: C_26  and  C_36
REMARK    5  A    between atoms: C_27  and  O_28
REMARK    6  A    between atoms: C_29  and  O_30
REMARK    7  A    between atoms: C_31  and  O_32
REMARK    8  A    between atoms: C_36  and  O_37
REMARK                            x       y       z     vdW  Elec       q    Type
REMARK                         _______ _______ _______ _____ _____    ______ ____
ROOT
ATOM      1  O   UNL     1     -41.874  -4.736 -32.999  0.00  0.00    +0.000 OA
ATOM      2  C   UNL     1     -42.376  -3.630 -32.658  0.00  0.00    +0.000 A 
ATOM      3  C   UNL     1     -41.566  -2.486 -32.617  0.00  0.00    +0.000 A 
ATOM      4  C   UNL     1     -40.204  -2.536 -32.943  0.00  0.00    +0.000 A 
ATOM      5  C   UNL     1     -39.427  -1.375 -32.892  0.00  0.00    +0.000 A 
ATOM      6  C   UNL     1     -40.002  -0.151 -32.516  0.00  0.00    +0.000 A 
ATOM      7  C   UNL     1     -41.361  -0.100 -32.189  0.00  0.00    +0.000 A 
ATOM      8  C   UNL     1     -42.145  -1.256 -32.237  0.00  0.00    +0.000 A 
ATOM      9  O   UNL     1     -43.433  -1.192 -31.924  0.00  0.00    +0.000 OA
ATOM     10  C   UNL     1     -44.226  -2.255 -31.952  0.00  0.00    +0.000 A 
ATOM     11  C   UNL     1     -43.746  -3.525 -32.316  0.00  0.00    +0.000 A 
ENDROOT
BRANCH  11  12
ATOM     12  C   UNL     1     -44.696  -4.679 -32.325  0.00  0.00    +0.000 A 
ATOM     13  C   UNL     1     -45.395  -5.004 -33.500  0.00  0.00    +0.000 A 
ATOM     14  C   UNL     1     -46.272  -6.090 -33.536  0.00  0.00    +0.000 A 
ATOM     15  C   UNL     1     -46.474  -6.873 -32.397  0.00  0.00    +0.000 A 
ATOM     16  C   UNL     1     -45.834  -6.518 -31.189  0.00  0.00    +0.000 A 
ATOM     17  C   UNL     1     -44.935  -5.448 -31.175  0.00  0.00    +0.000 A 
ATOM     18  O   UNL     1     -46.102  -7.178 -29.985  0.00  0.00    +0.000 OA
ATOM     19  C   UNL     1     -47.382  -7.732 -29.697  0.00  0.00    +0.000 C 
ATOM     20  C   UNL     1     -47.574  -9.102 -30.337  0.00  0.00    +0.000 C 
ATOM     21  C   UNL     1     -47.013  -9.190 -31.751  0.00  0.00    +0.000 C 
ATOM     22  O   UNL     1     -47.278  -8.012 -32.505  0.00  0.00    +0.000 OA
ENDBRANCH  11  12
BRANCH   6  23
ATOM     23  O   UNL     1     -39.249   1.025 -32.456  0.00  0.00    +0.000 OA
BRANCH  23  24
ATOM     24  C   UNL     1     -38.388   1.454 -33.508  0.00  0.00    +0.000 C 
ATOM     25  O   UNL     1     -38.850   2.682 -34.029  0.00  0.00    +0.000 OA
ATOM     26  C   UNL     1     -38.025   2.982 -35.126  0.00  0.00    +0.000 C 
ATOM     27  C   UNL     1     -36.637   3.466 -34.647  0.00  0.00    +0.000 C 
ATOM     28  C   UNL     1     -36.311   2.932 -33.239  0.00  0.00    +0.000 C 
ATOM     29  C   UNL     1     -36.911   1.533 -33.038  0.00  0.00    +0.000 C 
BRANCH  27  30
ATOM     30  O   UNL     1     -36.524   4.860 -34.678  0.00  0.00    +0.000 OA
ATOM     31  H   UNL     1     -36.513   5.205 -33.772  0.00  0.00    +0.000 HD
ENDBRANCH  27  30
BRANCH  28  32
ATOM     32  O   UNL     1     -36.803   3.802 -32.259  0.00  0.00    +0.000 OA
ATOM     33  H   UNL     1     -37.579   3.403 -31.833  0.00  0.00    +0.000 HD
ENDBRANCH  28  32
BRANCH  29  34
ATOM     34  O   UNL     1     -36.753   1.109 -31.716  0.00  0.00    +0.000 OA
ATOM     35  H   UNL     1     -36.993   0.173 -31.645  0.00  0.00    +0.000 HD
ENDBRANCH  29  34
BRANCH  26  36
ATOM     36  C   UNL     1     -38.714   3.954 -36.073  0.00  0.00    +0.000 C 
BRANCH  36  37
ATOM     37  O   UNL     1     -38.008   4.027 -37.273  0.00  0.00    +0.000 OA
ATOM     38  H   UNL     1     -37.235   4.603 -37.160  0.00  0.00    +0.000 HD
ENDBRANCH  36  37
ENDBRANCH  26  36
ENDBRANCH  23  24
ENDBRANCH   6  23
TORSDOF 8
ENDMDL
MODEL 3
REMARK VINA RESULT:      -6.8      4.706     11.196
REMARK  Name = ZINC000004257540
REMARK  8 active torsions:
REMARK  status: ('A' for Active; 'I' for Inactive)
REMARK    1  A    between atoms: C_6  and  O_23
REMARK    2  A    between atoms: C_11  and  C_12
REMARK    3  A    between atoms: O_23  and  C_24
REMARK    4  A    between atoms: C_26  and  C_36
REMARK    5  A    between atoms: C_27  and  O_28
REMARK    6  A    between atoms: C_29  and  O_30
REMARK    7  A    between atoms: C_31  and  O_32
REMARK    8  A    between atoms: C_36  and  O_37
REMARK                            x       y       z     vdW  Elec       q    Type
REMARK                         _______ _______ _______ _____ _____    ______ ____
ROOT
ATOM      1  O   UNL     1     -47.308  -4.563 -23.055  0.00  0.00    +0.000 OA
ATOM      2  C   UNL     1     -46.827  -5.306 -23.954  0.00  0.00    +0.000 A 
ATOM      3  C   UNL     1     -46.965  -4.941 -25.301  0.00  0.00    +0.000 A 
ATOM      4  C   UNL     1     -47.628  -3.766 -25.681  0.00  0.00    +0.000 A 
ATOM      5  C   UNL     1     -47.745  -3.431 -27.033  0.00  0.00    +0.000 A 
ATOM      6  C   UNL     1     -47.200  -4.267 -28.021  0.00  0.00    +0.000 A 
ATOM      7  C   UNL     1     -46.539  -5.439 -27.643  0.00  0.00    +0.000 A 
ATOM      8  C   UNL     1     -46.417  -5.781 -26.294  0.00  0.00    +0.000 A 
ATOM      9  O   UNL     1     -45.787  -6.897 -25.952  0.00  0.00    +0.000 OA
ATOM     10  C   UNL     1     -45.641  -7.273 -24.687  0.00  0.00    +0.000 A 
ATOM     11  C   UNL     1     -46.150  -6.505 -23.625  0.00  0.00    +0.000 A 
ENDROOT
BRANCH  11  12
ATOM     12  C   UNL     1     -45.949  -6.989 -22.225  0.00  0.00    +0.000 A 
ATOM     13  C   UNL     1     -45.013  -6.355 -21.391  0.00  0.00    +0.000 A 
ATOM     14  C   UNL     1     -44.823  -6.777 -20.074  0.00  0.00    +0.000 A 
ATOM     15  C   UNL     1     -45.561  -7.848 -19.562  0.00  0.00    +0.000 A 
ATOM     16  C   UNL     1     -46.454  -8.542 -20.408  0.00  0.00    +0.000 A 
ATOM     17  C   UNL     1     -46.657  -8.088 -21.715  0.00  0.00    +0.000 A 
ATOM     18  O   UNL     1     -47.117  -9.702 -19.996  0.00  0.00    +0.000 OA
ATOM     19  C   UNL     1     -46.535 -10.616 -19.072  0.00  0.00    +0.000 C 
ATOM     20  C   UNL     1     -46.708 -10.163 -17.627  0.00  0.00    +0.000 C 
ATOM     21  C   UNL     1     -46.506  -8.665 -17.437  0.00  0.00    +0.000 C 
ATOM     22  O   UNL     1     -45.417  -8.170 -18.209  0.00  0.00    +0.000 OA
ENDBRANCH  11  12
BRANCH   6  23
ATOM     23  O   UNL     1     -47.303  -3.957 -29.381  0.00  0.00    +0.000 OA
BRANCH  23  24
ATOM     24  C   UNL     1     -46.554  -4.629 -30.391  0.00  0.00    +0.000 C 
ATOM     25  O   UNL     1     -47.358  -5.616 -31.001  0.00  0.00    +0.000 OA
ATOM     26  C   UNL     1     -46.526  -6.305 -31.900  0.00  0.00    +0.000 C 
ATOM     27  C   UNL     1     -46.255  -5.448 -33.158  0.00  0.00    +0.000 C 
ATOM     28  C   UNL     1     -46.413  -3.944 -32.858  0.00  0.00    +0.000 C 
ATOM     29  C   UNL     1     -45.966  -3.629 -31.423  0.00  0.00    +0.000 C 
BRANCH  27  30
ATOM     30  O   UNL     1     -47.068  -5.818 -34.234  0.00  0.00    +0.000 OA
ATOM     31  H   UNL     1     -46.833  -5.292 -35.014  0.00  0.00    +0.000 HD
ENDBRANCH  27  30
BRANCH  28  32
ATOM     32  O   UNL     1     -47.743  -3.546 -33.037  0.00  0.00    +0.000 OA
ATOM     33  H   UNL     1     -48.271  -4.306 -33.332  0.00  0.00    +0.000 HD
ENDBRANCH  28  32
BRANCH  29  34
ATOM     34  O   UNL     1     -46.251  -2.301 -31.095  0.00  0.00    +0.000 OA
ATOM     35  H   UNL     1     -46.844  -2.277 -30.327  0.00  0.00    +0.000 HD
ENDBRANCH  29  34
BRANCH  26  36
ATOM     36  C   UNL     1     -47.090  -7.683 -32.213  0.00  0.00    +0.000 C 
BRANCH  36  37
ATOM     37  O   UNL     1     -46.254  -8.344 -33.113  0.00  0.00    +0.000 OA
ATOM     38  H   UNL     1     -45.934  -7.715 -33.779  0.00  0.00    +0.000 HD
ENDBRANCH  36  37
ENDBRANCH  26  36
ENDBRANCH  23  24
ENDBRANCH   6  23
TORSDOF 8
ENDMDL
