MODEL 1
REMARK VINA RESULT:      -6.4      0.000      0.000
REMARK  Name = ZINC000003368851 ZINC03368851 CSC027878501 MCULE-2701712437 MolPort-005-844-179 PubChem-2486663
REMARK  7 active torsions:
REMARK  status: ('A' for Active; 'I' for Inactive)
REMARK    1  A    between atoms: C_6  and  C_19
REMARK    2  A    between atoms: N_10  and  C_18
REMARK    3  A    between atoms: C_19  and  O_20
REMARK    4  A    between atoms: O_20  and  C_21
REMARK    5  A    between atoms: C_21  and  C_23
REMARK    6  A    between atoms: C_23  and  S_24
REMARK    7  A    between atoms: S_24  and  C_25
REMARK                            x       y       z     vdW  Elec       q    Type
REMARK                         _______ _______ _______ _____ _____    ______ ____
ROOT
ATOM      1  C   UNL     1     -42.918 -20.172 -20.548  0.00  0.00    +0.000 A 
ATOM      2  N   UNL     1     -41.936 -21.105 -20.446  0.00  0.00    +0.000 NA
ATOM      3  C   UNL     1     -41.360 -21.617 -21.563  0.00  0.00    +0.000 A 
ATOM      4  N   UNL     1     -40.324 -22.584 -21.451  0.00  0.00    +0.000 N 
ATOM      5  N   UNL     1     -41.767 -21.202 -22.788  0.00  0.00    +0.000 NA
ATOM      6  C   UNL     1     -42.744 -20.266 -22.896  0.00  0.00    +0.000 A 
ATOM      7  N   UNL     1     -43.317 -19.753 -21.778  0.00  0.00    +0.000 NA
ATOM      8  H   UNL     1     -40.027 -22.887 -20.563  0.00  0.00    +0.000 HD
ATOM      9  H   UNL     1     -39.903 -22.951 -22.262  0.00  0.00    +0.000 HD
ATOM     10  N   UNL     1     -43.505 -19.640 -19.352  0.00  0.00    +0.000 N 
ATOM     11  H   UNL     1     -43.129 -19.959 -18.500  0.00  0.00    +0.000 HD
ENDROOT
BRANCH  10  18
ATOM     12  C   UNL     1     -42.923 -16.917 -18.575  0.00  0.00    +0.000 C 
ATOM     13  C   UNL     1     -44.314 -17.360 -18.884  0.00  0.00    +0.000 A 
ATOM     14  C   UNL     1     -45.354 -16.428 -18.806  0.00  0.00    +0.000 A 
ATOM     15  C   UNL     1     -46.667 -16.807 -19.095  0.00  0.00    +0.000 A 
ATOM     16  C   UNL     1     -46.946 -18.126 -19.458  0.00  0.00    +0.000 A 
ATOM     17  C   UNL     1     -45.910 -19.061 -19.535  0.00  0.00    +0.000 A 
ATOM     18  C   UNL     1     -44.585 -18.691 -19.257  0.00  0.00    +0.000 A 
ENDBRANCH  10  18
BRANCH   6  19
ATOM     19  C   UNL     1     -43.202 -19.821 -24.243  0.00  0.00    +0.000 C 
BRANCH  19  20
ATOM     20  O   UNL     1     -44.616 -19.933 -24.338  0.00  0.00    +0.000 OA
BRANCH  20  21
ATOM     21  C   UNL     1     -45.426 -18.856 -24.708  0.00  0.00    +0.000 C 
ATOM     22  O   UNL     1     -46.627 -19.033 -25.055  0.00  0.00    +0.000 OA
BRANCH  21  23
ATOM     23  C   UNL     1     -44.858 -17.479 -24.709  0.00  0.00    +0.000 C 
BRANCH  23  24
ATOM     24  S   UNL     1     -46.196 -16.244 -24.771  0.00  0.00    +0.000 S 
BRANCH  24  25
ATOM     25  C   UNL     1     -45.612 -15.378 -23.318  0.00  0.00    +0.000 A 
ATOM     26  C   UNL     1     -44.251 -15.390 -22.997  0.00  0.00    +0.000 A 
ATOM     27  C   UNL     1     -43.794 -14.683 -21.883  0.00  0.00    +0.000 A 
ATOM     28  C   UNL     1     -42.334 -14.686 -21.580  0.00  0.00    +0.000 C 
ATOM     29  C   UNL     1     -44.713 -13.974 -21.088  0.00  0.00    +0.000 A 
ATOM     30  C   UNL     1     -44.309 -13.249 -19.958  0.00  0.00    +0.000 A 
ATOM     31  C   UNL     1     -45.251 -12.558 -19.190  0.00  0.00    +0.000 A 
ATOM     32  C   UNL     1     -46.602 -12.584 -19.546  0.00  0.00    +0.000 A 
ATOM     33  C   UNL     1     -47.017 -13.298 -20.675  0.00  0.00    +0.000 A 
ATOM     34  C   UNL     1     -46.083 -13.994 -21.446  0.00  0.00    +0.000 A 
ATOM     35  N   UNL     1     -46.489 -14.679 -22.548  0.00  0.00    +0.000 NA
ENDBRANCH  24  25
ENDBRANCH  23  24
ENDBRANCH  21  23
ENDBRANCH  20  21
ENDBRANCH  19  20
ENDBRANCH   6  19
TORSDOF 7
ENDMDL
MODEL 2
REMARK VINA RESULT:      -6.3      2.915      4.152
REMARK  Name = ZINC000003368851 ZINC03368851 CSC027878501 MCULE-2701712437 MolPort-005-844-179 PubChem-2486663
REMARK  7 active torsions:
REMARK  status: ('A' for Active; 'I' for Inactive)
REMARK    1  A    between atoms: C_6  and  C_19
REMARK    2  A    between atoms: N_10  and  C_18
REMARK    3  A    between atoms: C_19  and  O_20
REMARK    4  A    between atoms: O_20  and  C_21
REMARK    5  A    between atoms: C_21  and  C_23
REMARK    6  A    between atoms: C_23  and  S_24
REMARK    7  A    between atoms: S_24  and  C_25
REMARK                            x       y       z     vdW  Elec       q    Type
REMARK                         _______ _______ _______ _____ _____    ______ ____
ROOT
ATOM      1  C   UNL     1     -42.759 -20.190 -20.560  0.00  0.00    +0.000 A 
ATOM      2  N   UNL     1     -41.741 -21.082 -20.440  0.00  0.00    +0.000 NA
ATOM      3  C   UNL     1     -41.213 -21.671 -21.543  0.00  0.00    +0.000 A 
ATOM      4  N   UNL     1     -40.140 -22.594 -21.414  0.00  0.00    +0.000 N 
ATOM      5  N   UNL     1     -41.704 -21.373 -22.772  0.00  0.00    +0.000 NA
ATOM      6  C   UNL     1     -42.716 -20.479 -22.898  0.00  0.00    +0.000 A 
ATOM      7  N   UNL     1     -43.241 -19.889 -21.795  0.00  0.00    +0.000 NA
ATOM      8  H   UNL     1     -39.782 -22.811 -20.522  0.00  0.00    +0.000 HD
ATOM      9  H   UNL     1     -39.754 -23.016 -22.215  0.00  0.00    +0.000 HD
ATOM     10  N   UNL     1     -43.294 -19.575 -19.380  0.00  0.00    +0.000 N 
ATOM     11  H   UNL     1     -42.859 -19.809 -18.529  0.00  0.00    +0.000 HD
ENDROOT
BRANCH  10  18
ATOM     12  C   UNL     1     -42.795 -16.846 -18.569  0.00  0.00    +0.000 C 
ATOM     13  C   UNL     1     -44.167 -17.321 -18.911  0.00  0.00    +0.000 A 
ATOM     14  C   UNL     1     -45.231 -16.414 -18.846  0.00  0.00    +0.000 A 
ATOM     15  C   UNL     1     -46.529 -16.823 -19.165  0.00  0.00    +0.000 A 
ATOM     16  C   UNL     1     -46.768 -18.144 -19.545  0.00  0.00    +0.000 A 
ATOM     17  C   UNL     1     -45.708 -19.053 -19.608  0.00  0.00    +0.000 A 
ATOM     18  C   UNL     1     -44.398 -18.654 -19.299  0.00  0.00    +0.000 A 
ENDBRANCH  10  18
BRANCH   6  19
ATOM     19  C   UNL     1     -43.266 -20.164 -24.248  0.00  0.00    +0.000 C 
BRANCH  19  20
ATOM     20  O   UNL     1     -44.682 -20.060 -24.185  0.00  0.00    +0.000 OA
BRANCH  20  21
ATOM     21  C   UNL     1     -45.368 -18.929 -24.637  0.00  0.00    +0.000 C 
ATOM     22  O   UNL     1     -46.561 -19.009 -25.042  0.00  0.00    +0.000 OA
BRANCH  21  23
ATOM     23  C   UNL     1     -44.674 -17.611 -24.655  0.00  0.00    +0.000 C 
BRANCH  23  24
ATOM     24  S   UNL     1     -45.851 -16.272 -24.276  0.00  0.00    +0.000 S 
BRANCH  24  25
ATOM     25  C   UNL     1     -45.539 -15.415 -25.815  0.00  0.00    +0.000 A 
ATOM     26  C   UNL     1     -44.461 -15.794 -26.621  0.00  0.00    +0.000 A 
ATOM     27  C   UNL     1     -44.243 -15.147 -27.839  0.00  0.00    +0.000 A 
ATOM     28  C   UNL     1     -43.105 -15.591 -28.694  0.00  0.00    +0.000 C 
ATOM     29  C   UNL     1     -45.105 -14.109 -28.235  0.00  0.00    +0.000 A 
ATOM     30  C   UNL     1     -44.931 -13.423 -29.446  0.00  0.00    +0.000 A 
ATOM     31  C   UNL     1     -45.806 -12.396 -29.807  0.00  0.00    +0.000 A 
ATOM     32  C   UNL     1     -46.864 -12.046 -28.963  0.00  0.00    +0.000 A 
ATOM     33  C   UNL     1     -47.053 -12.726 -27.755  0.00  0.00    +0.000 A 
ATOM     34  C   UNL     1     -46.180 -13.752 -27.386  0.00  0.00    +0.000 A 
ATOM     35  N   UNL     1     -46.372 -14.418 -26.215  0.00  0.00    +0.000 NA
ENDBRANCH  24  25
ENDBRANCH  23  24
ENDBRANCH  21  23
ENDBRANCH  20  21
ENDBRANCH  19  20
ENDBRANCH   6  19
TORSDOF 7
ENDMDL
MODEL 3
REMARK VINA RESULT:      -6.1      3.861      7.338
REMARK  Name = ZINC000003368851 ZINC03368851 CSC027878501 MCULE-2701712437 MolPort-005-844-179 PubChem-2486663
REMARK  7 active torsions:
REMARK  status: ('A' for Active; 'I' for Inactive)
REMARK    1  A    between atoms: C_6  and  C_19
REMARK    2  A    between atoms: N_10  and  C_18
REMARK    3  A    between atoms: C_19  and  O_20
REMARK    4  A    between atoms: O_20  and  C_21
REMARK    5  A    between atoms: C_21  and  C_23
REMARK    6  A    between atoms: C_23  and  S_24
REMARK    7  A    between atoms: S_24  and  C_25
REMARK                            x       y       z     vdW  Elec       q    Type
REMARK                         _______ _______ _______ _____ _____    ______ ____
ROOT
ATOM      1  C   UNL     1     -44.192 -15.293 -27.584  0.00  0.00    +0.000 A 
ATOM      2  N   UNL     1     -43.520 -14.620 -28.553  0.00  0.00    +0.000 NA
ATOM      3  C   UNL     1     -43.777 -13.306 -28.778  0.00  0.00    +0.000 A 
ATOM      4  N   UNL     1     -43.061 -12.603 -29.785  0.00  0.00    +0.000 N 
ATOM      5  N   UNL     1     -44.711 -12.661 -28.037  0.00  0.00    +0.000 NA
ATOM      6  C   UNL     1     -45.381 -13.327 -27.063  0.00  0.00    +0.000 A 
ATOM      7  N   UNL     1     -45.121 -14.640 -26.838  0.00  0.00    +0.000 NA
ATOM      8  H   UNL     1     -42.382 -13.070 -30.324  0.00  0.00    +0.000 HD
ATOM      9  H   UNL     1     -43.244 -11.648 -29.944  0.00  0.00    +0.000 HD
ATOM     10  N   UNL     1     -43.897 -16.679 -27.360  0.00  0.00    +0.000 N 
ATOM     11  H   UNL     1     -43.177 -17.067 -27.908  0.00  0.00    +0.000 HD
ENDROOT
BRANCH  10  18
ATOM     12  C   UNL     1     -43.057 -19.443 -27.244  0.00  0.00    +0.000 C 
ATOM     13  C   UNL     1     -44.131 -18.915 -26.354  0.00  0.00    +0.000 A 
ATOM     14  C   UNL     1     -44.733 -19.782 -25.435  0.00  0.00    +0.000 A 
ATOM     15  C   UNL     1     -45.738 -19.320 -24.581  0.00  0.00    +0.000 A 
ATOM     16  C   UNL     1     -46.149 -17.988 -24.647  0.00  0.00    +0.000 A 
ATOM     17  C   UNL     1     -45.552 -17.119 -25.565  0.00  0.00    +0.000 A 
ATOM     18  C   UNL     1     -44.535 -17.567 -26.423  0.00  0.00    +0.000 A 
ENDBRANCH  10  18
BRANCH   6  19
ATOM     19  C   UNL     1     -46.419 -12.620 -26.259  0.00  0.00    +0.000 C 
BRANCH  19  20
ATOM     20  O   UNL     1     -46.374 -13.064 -24.909  0.00  0.00    +0.000 OA
BRANCH  20  21
ATOM     21  C   UNL     1     -45.617 -12.406 -23.934  0.00  0.00    +0.000 C 
ATOM     22  O   UNL     1     -45.522 -11.148 -23.922  0.00  0.00    +0.000 OA
BRANCH  21  23
ATOM     23  C   UNL     1     -44.899 -13.205 -22.903  0.00  0.00    +0.000 C 
BRANCH  23  24
ATOM     24  S   UNL     1     -46.061 -13.770 -21.619  0.00  0.00    +0.000 S 
BRANCH  24  25
ATOM     25  C   UNL     1     -45.362 -15.416 -21.556  0.00  0.00    +0.000 A 
ATOM     26  C   UNL     1     -45.952 -16.397 -20.751  0.00  0.00    +0.000 A 
ATOM     27  C   UNL     1     -45.425 -17.689 -20.733  0.00  0.00    +0.000 A 
ATOM     28  C   UNL     1     -46.091 -18.724 -19.892  0.00  0.00    +0.000 C 
ATOM     29  C   UNL     1     -44.296 -17.987 -21.518  0.00  0.00    +0.000 A 
ATOM     30  C   UNL     1     -43.725 -19.268 -21.536  0.00  0.00    +0.000 A 
ATOM     31  C   UNL     1     -42.602 -19.528 -22.326  0.00  0.00    +0.000 A 
ATOM     32  C   UNL     1     -42.042 -18.513 -23.106  0.00  0.00    +0.000 A 
ATOM     33  C   UNL     1     -42.606 -17.233 -23.102  0.00  0.00    +0.000 A 
ATOM     34  C   UNL     1     -43.727 -16.964 -22.312  0.00  0.00    +0.000 A 
ATOM     35  N   UNL     1     -44.278 -15.721 -22.318  0.00  0.00    +0.000 NA
ENDBRANCH  24  25
ENDBRANCH  23  24
ENDBRANCH  21  23
ENDBRANCH  20  21
ENDBRANCH  19  20
ENDBRANCH   6  19
TORSDOF 7
ENDMDL
