MODEL 1
REMARK VINA RESULT:      -7.5      0.000      0.000
REMARK  Name = ZINC000096114995 ZINC96114995 PubChem-97424600
REMARK  4 active torsions:
REMARK  status: ('A' for Active; 'I' for Inactive)
REMARK    1  A    between atoms: C_1  and  C_23
REMARK    2  A    between atoms: C_13  and  C_28
REMARK    3  A    between atoms: C_15  and  O_18
REMARK    4  A    between atoms: C_16  and  O_17
REMARK                            x       y       z     vdW  Elec       q    Type
REMARK                         _______ _______ _______ _____ _____    ______ ____
ROOT
ATOM      1  C   UNL     1     -46.715  -9.079 -28.148  0.00  0.00    +0.000 C 
ATOM      2  C   UNL     1     -46.169 -10.498 -28.332  0.00  0.00    +0.000 C 
ATOM      3  C   UNL     1     -46.698 -11.131 -29.570  0.00  0.00    +0.000 C 
ATOM      4  O   UNL     1     -46.957 -12.362 -29.589  0.00  0.00    +0.000 OA
ATOM      5  O   UNL     1     -46.866 -10.364 -30.718  0.00  0.00    +0.000 OA
ATOM      6  C   UNL     1     -46.841  -8.966 -30.681  0.00  0.00    +0.000 A 
ATOM      7  C   UNL     1     -46.788  -8.275 -29.448  0.00  0.00    +0.000 A 
ATOM      8  C   UNL     1     -46.930  -6.865 -29.453  0.00  0.00    +0.000 A 
ATOM      9  C   UNL     1     -46.997  -6.155 -30.680  0.00  0.00    +0.000 A 
ATOM     10  C   UNL     1     -47.106  -4.751 -30.624  0.00  0.00    +0.000 A 
ATOM     11  O   UNL     1     -47.159  -4.048 -31.669  0.00  0.00    +0.000 OA
ATOM     12  C   UNL     1     -47.164  -4.115 -29.391  0.00  0.00    +0.000 A 
ATOM     13  C   UNL     1     -47.113  -4.876 -28.221  0.00  0.00    +0.000 A 
ATOM     14  O   UNL     1     -47.002  -6.199 -28.301  0.00  0.00    +0.000 OA
ATOM     15  C   UNL     1     -46.967  -6.869 -31.897  0.00  0.00    +0.000 A 
ATOM     16  C   UNL     1     -46.907  -8.264 -31.887  0.00  0.00    +0.000 A 
ENDROOT
BRANCH   1  19
ATOM     17  C   UNL     1     -47.463  -8.741 -25.039  0.00  0.00    +0.000 C 
ATOM     18  C   UNL     1     -46.233  -8.256 -25.731  0.00  0.00    +0.000 A 
ATOM     19  C   UNL     1     -45.909  -8.424 -27.063  0.00  0.00    +0.000 A 
ATOM     20  C   UNL     1     -44.702  -7.766 -27.240  0.00  0.00    +0.000 A 
ATOM     21  N   UNL     1     -44.324  -7.252 -26.049  0.00  0.00    +0.000 NA
ATOM     22  N   UNL     1     -45.247  -7.553 -25.151  0.00  0.00    +0.000 N 
ATOM     23  C   UNL     1     -45.175  -7.153 -23.756  0.00  0.00    +0.000 C 
ENDBRANCH   1  19
BRANCH  13  24
ATOM     24  C   UNL     1     -47.179  -4.226 -26.896  0.00  0.00    +0.000 A 
ATOM     25  C   UNL     1     -47.192  -4.986 -25.714  0.00  0.00    +0.000 A 
ATOM     26  C   UNL     1     -47.258  -4.356 -24.468  0.00  0.00    +0.000 A 
ATOM     27  C   UNL     1     -47.311  -2.963 -24.391  0.00  0.00    +0.000 A 
ATOM     28  C   UNL     1     -47.297  -2.198 -25.560  0.00  0.00    +0.000 A 
ATOM     29  C   UNL     1     -47.231  -2.827 -26.806  0.00  0.00    +0.000 A 
ENDBRANCH  13  24
BRANCH  16  30
ATOM     30  O   UNL     1     -46.922  -8.962 -33.090  0.00  0.00    +0.000 OA
ATOM     31  H   UNL     1     -46.572  -9.831 -33.131  0.00  0.00    +0.000 HD
ENDBRANCH  16  30
BRANCH  15  32
ATOM     32  O   UNL     1     -47.017  -6.210 -33.122  0.00  0.00    +0.000 OA
ATOM     33  H   UNL     1     -46.930  -6.696 -33.918  0.00  0.00    +0.000 HD
ENDBRANCH  15  32
TORSDOF 4
ENDMDL
MODEL 2
REMARK VINA RESULT:      -7.3      1.436      2.146
REMARK  Name = ZINC000096114995 ZINC96114995 PubChem-97424600
REMARK  4 active torsions:
REMARK  status: ('A' for Active; 'I' for Inactive)
REMARK    1  A    between atoms: C_1  and  C_23
REMARK    2  A    between atoms: C_13  and  C_28
REMARK    3  A    between atoms: C_15  and  O_18
REMARK    4  A    between atoms: C_16  and  O_17
REMARK                            x       y       z     vdW  Elec       q    Type
REMARK                         _______ _______ _______ _____ _____    ______ ____
ROOT
ATOM      1  C   UNL     1     -46.689  -9.102 -25.888  0.00  0.00    +0.000 C 
ATOM      2  C   UNL     1     -46.153 -10.519 -25.667  0.00  0.00    +0.000 C 
ATOM      3  C   UNL     1     -46.652 -11.462 -26.705  0.00  0.00    +0.000 C 
ATOM      4  O   UNL     1     -46.922 -12.651 -26.399  0.00  0.00    +0.000 OA
ATOM      5  O   UNL     1     -46.781 -11.031 -28.021  0.00  0.00    +0.000 OA
ATOM      6  C   UNL     1     -46.744  -9.675 -28.361  0.00  0.00    +0.000 A 
ATOM      7  C   UNL     1     -46.718  -8.678 -27.359  0.00  0.00    +0.000 A 
ATOM      8  C   UNL     1     -46.847  -7.321 -27.747  0.00  0.00    +0.000 A 
ATOM      9  C   UNL     1     -46.873  -6.968 -29.121  0.00  0.00    +0.000 A 
ATOM     10  C   UNL     1     -46.970  -5.600 -29.448  0.00  0.00    +0.000 A 
ATOM     11  O   UNL     1     -46.987  -5.205 -30.645  0.00  0.00    +0.000 OA
ATOM     12  C   UNL     1     -47.056  -4.655 -28.433  0.00  0.00    +0.000 A 
ATOM     13  C   UNL     1     -47.045  -5.073 -27.101  0.00  0.00    +0.000 A 
ATOM     14  O   UNL     1     -46.945  -6.370 -26.818  0.00  0.00    +0.000 OA
ATOM     15  C   UNL     1     -46.817  -7.983 -30.099  0.00  0.00    +0.000 A 
ATOM     16  C   UNL     1     -46.770  -9.324 -29.713  0.00  0.00    +0.000 A 
ENDROOT
BRANCH   1  19
ATOM     17  C   UNL     1     -47.530  -7.921 -23.018  0.00  0.00    +0.000 C 
ATOM     18  C   UNL     1     -46.271  -7.652 -23.773  0.00  0.00    +0.000 A 
ATOM     19  C   UNL     1     -45.908  -8.181 -24.996  0.00  0.00    +0.000 A 
ATOM     20  C   UNL     1     -44.685  -7.605 -25.304  0.00  0.00    +0.000 A 
ATOM     21  N   UNL     1     -44.337  -6.787 -24.287  0.00  0.00    +0.000 NA
ATOM     22  N   UNL     1     -45.293  -6.824 -23.374  0.00  0.00    +0.000 N 
ATOM     23  C   UNL     1     -45.258  -6.058 -22.140  0.00  0.00    +0.000 C 
ENDBRANCH   1  19
BRANCH  13  24
ATOM     24  C   UNL     1     -47.142  -4.090 -26.002  0.00  0.00    +0.000 A 
ATOM     25  C   UNL     1     -47.186  -2.711 -26.264  0.00  0.00    +0.000 A 
ATOM     26  C   UNL     1     -47.273  -1.793 -25.213  0.00  0.00    +0.000 A 
ATOM     27  C   UNL     1     -47.319  -2.245 -23.892  0.00  0.00    +0.000 A 
ATOM     28  C   UNL     1     -47.277  -3.615 -23.621  0.00  0.00    +0.000 A 
ATOM     29  C   UNL     1     -47.189  -4.533 -24.672  0.00  0.00    +0.000 A 
ENDBRANCH  13  24
BRANCH  16  30
ATOM     30  O   UNL     1     -46.758 -10.320 -30.683  0.00  0.00    +0.000 OA
ATOM     31  H   UNL     1     -45.948 -10.579 -31.078  0.00  0.00    +0.000 HD
ENDBRANCH  16  30
BRANCH  15  32
ATOM     32  O   UNL     1     -46.826  -7.678 -31.457  0.00  0.00    +0.000 OA
ATOM     33  H   UNL     1     -46.036  -7.743 -31.957  0.00  0.00    +0.000 HD
ENDBRANCH  15  32
TORSDOF 4
ENDMDL
MODEL 3
REMARK VINA RESULT:      -7.2      8.401     10.957
REMARK  Name = ZINC000096114995 ZINC96114995 PubChem-97424600
REMARK  4 active torsions:
REMARK  status: ('A' for Active; 'I' for Inactive)
REMARK    1  A    between atoms: C_1  and  C_23
REMARK    2  A    between atoms: C_13  and  C_28
REMARK    3  A    between atoms: C_15  and  O_18
REMARK    4  A    between atoms: C_16  and  O_17
REMARK                            x       y       z     vdW  Elec       q    Type
REMARK                         _______ _______ _______ _____ _____    ______ ____
ROOT
ATOM      1  C   UNL     1     -44.814 -17.936 -23.661  0.00  0.00    +0.000 C 
ATOM      2  C   UNL     1     -44.054 -18.979 -24.485  0.00  0.00    +0.000 C 
ATOM      3  C   UNL     1     -44.441 -18.930 -25.921  0.00  0.00    +0.000 C 
ATOM      4  O   UNL     1     -44.510 -19.991 -26.593  0.00  0.00    +0.000 OA
ATOM      5  O   UNL     1     -44.688 -17.702 -26.526  0.00  0.00    +0.000 OA
ATOM      6  C   UNL     1     -44.877 -16.536 -25.777  0.00  0.00    +0.000 A 
ATOM      7  C   UNL     1     -44.967 -16.587 -24.367  0.00  0.00    +0.000 A 
ATOM      8  C   UNL     1     -45.321 -15.408 -23.665  0.00  0.00    +0.000 A 
ATOM      9  C   UNL     1     -45.456 -14.176 -24.357  0.00  0.00    +0.000 A 
ATOM     10  C   UNL     1     -45.778 -13.028 -23.603  0.00  0.00    +0.000 A 
ATOM     11  O   UNL     1     -45.905 -11.896 -24.141  0.00  0.00    +0.000 OA
ATOM     12  C   UNL     1     -45.970 -13.139 -22.231  0.00  0.00    +0.000 A 
ATOM     13  C   UNL     1     -45.841 -14.387 -21.617  0.00  0.00    +0.000 A 
ATOM     14  O   UNL     1     -45.529 -15.453 -22.350  0.00  0.00    +0.000 OA
ATOM     15  C   UNL     1     -45.281 -14.143 -25.756  0.00  0.00    +0.000 A 
ATOM     16  C   UNL     1     -45.011 -15.321 -26.455  0.00  0.00    +0.000 A 
ENDROOT
BRANCH   1  19
ATOM     17  C   UNL     1     -46.068 -18.613 -20.778  0.00  0.00    +0.000 C 
ATOM     18  C   UNL     1     -44.688 -18.124 -21.072  0.00  0.00    +0.000 A 
ATOM     19  C   UNL     1     -44.150 -17.856 -22.316  0.00  0.00    +0.000 A 
ATOM     20  C   UNL     1     -42.868 -17.388 -22.075  0.00  0.00    +0.000 A 
ATOM     21  N   UNL     1     -42.657 -17.404 -20.741  0.00  0.00    +0.000 NA
ATOM     22  N   UNL     1     -43.753 -17.849 -20.149  0.00  0.00    +0.000 N 
ATOM     23  C   UNL     1     -43.891 -17.992 -18.710  0.00  0.00    +0.000 C 
ENDBRANCH   1  19
BRANCH  13  24
ATOM     24  C   UNL     1     -46.046 -14.535 -20.161  0.00  0.00    +0.000 A 
ATOM     25  C   UNL     1     -44.960 -14.523 -19.270  0.00  0.00    +0.000 A 
ATOM     26  C   UNL     1     -45.169 -14.668 -17.896  0.00  0.00    +0.000 A 
ATOM     27  C   UNL     1     -46.465 -14.824 -17.399  0.00  0.00    +0.000 A 
ATOM     28  C   UNL     1     -47.553 -14.835 -18.277  0.00  0.00    +0.000 A 
ATOM     29  C   UNL     1     -47.343 -14.690 -19.651  0.00  0.00    +0.000 A 
ENDBRANCH  13  24
BRANCH  16  30
ATOM     30  O   UNL     1     -44.882 -15.287 -27.839  0.00  0.00    +0.000 OA
ATOM     31  H   UNL     1     -44.055 -15.477 -28.237  0.00  0.00    +0.000 HD
ENDBRANCH  16  30
BRANCH  15  32
ATOM     32  O   UNL     1     -45.392 -12.953 -26.470  0.00  0.00    +0.000 OA
ATOM     33  H   UNL     1     -45.819 -12.214 -26.084  0.00  0.00    +0.000 HD
ENDBRANCH  15  32
TORSDOF 4
ENDMDL
