MODEL 1
REMARK VINA RESULT:      -6.2      0.000      0.000
REMARK  Name = ZINC000012801021 ZINC12801021 MolPort-005-751-258 PubChem-25522332
REMARK  5 active torsions:
REMARK  status: ('A' for Active; 'I' for Inactive)
REMARK    1  A    between atoms: N_1  and  C_9
REMARK    2  A    between atoms: C_2  and  C_16
REMARK    3  A    between atoms: C_5  and  O_13
REMARK    4  A    between atoms: C_11  and  O_14
REMARK    5  A    between atoms: C_17  and  C_18
REMARK                            x       y       z     vdW  Elec       q    Type
REMARK                         _______ _______ _______ _____ _____    ______ ____
ROOT
ATOM      1  N   UNL     1     -43.959 -16.938 -26.869  0.00  0.00    +0.000 N 
ATOM      2  C   UNL     1     -44.402 -17.996 -26.005  0.00  0.00    +0.000 C 
ATOM      3  O   UNL     1     -44.794 -19.075 -26.520  0.00  0.00    +0.000 OA
ATOM      4  H   UNL     1     -43.458 -17.200 -27.674  0.00  0.00    +0.000 HD
ENDROOT
BRANCH   1   9
ATOM      5  C   UNL     1     -44.574 -12.764 -26.342  0.00  0.00    +0.000 A 
ATOM      6  C   UNL     1     -43.343 -13.351 -26.016  0.00  0.00    +0.000 A 
ATOM      7  C   UNL     1     -43.140 -14.724 -26.182  0.00  0.00    +0.000 A 
ATOM      8  C   UNL     1     -41.814 -15.303 -25.824  0.00  0.00    +0.000 C 
ATOM      9  C   UNL     1     -44.178 -15.533 -26.669  0.00  0.00    +0.000 A 
ATOM     10  C   UNL     1     -45.402 -14.940 -27.013  0.00  0.00    +0.000 A 
ATOM     11  C   UNL     1     -45.611 -13.564 -26.845  0.00  0.00    +0.000 A 
BRANCH   5  13
ATOM     12  C   UNL     1     -44.136 -10.409 -26.968  0.00  0.00    +0.000 C 
ATOM     13  O   UNL     1     -44.790 -11.391 -26.176  0.00  0.00    +0.000 OA
ENDBRANCH   5  13
BRANCH  11  14
ATOM     14  O   UNL     1     -46.837 -12.973 -27.170  0.00  0.00    +0.000 OA
ATOM     15  C   UNL     1     -47.231 -12.709 -28.510  0.00  0.00    +0.000 C 
ENDBRANCH  11  14
ENDBRANCH   1   9
BRANCH   2  16
ATOM     16  C   UNL     1     -44.360 -17.895 -24.537  0.00  0.00    +0.000 C 
ATOM     17  C   UNL     1     -45.390 -17.466 -23.816  0.00  0.00    +0.000 C 
BRANCH  17  18
ATOM     18  C   UNL     1     -45.367 -17.376 -22.348  0.00  0.00    +0.000 A 
ATOM     19  C   UNL     1     -45.676 -16.294 -21.534  0.00  0.00    +0.000 A 
ATOM     20  C   UNL     1     -46.119 -14.949 -22.014  0.00  0.00    +0.000 C 
ATOM     21  N   UNL     1     -45.508 -16.637 -20.236  0.00  0.00    +0.000 N 
ATOM     22  C   UNL     1     -45.096 -17.927 -20.244  0.00  0.00    +0.000 A 
ATOM     23  C   UNL     1     -44.786 -18.740 -19.032  0.00  0.00    +0.000 C 
ATOM     24  C   UNL     1     -44.995 -18.424 -21.530  0.00  0.00    +0.000 A 
ATOM     25  C   UNL     1     -45.721 -15.807 -19.072  0.00  0.00    +0.000 A 
ATOM     26  N   UNL     1     -46.933 -15.580 -18.528  0.00  0.00    +0.000 NA
ATOM     27  O   UNL     1     -46.741 -14.796 -17.511  0.00  0.00    +0.000 OA
ATOM     28  C   UNL     1     -45.470 -14.511 -17.379  0.00  0.00    +0.000 A 
ATOM     29  C   UNL     1     -44.915 -13.636 -16.313  0.00  0.00    +0.000 C 
ATOM     30  C   UNL     1     -44.734 -15.135 -18.366  0.00  0.00    +0.000 A 
ENDBRANCH  17  18
ENDBRANCH   2  16
TORSDOF 5
ENDMDL
MODEL 2
REMARK VINA RESULT:      -6.1      3.447      7.656
REMARK  Name = ZINC000012801021 ZINC12801021 MolPort-005-751-258 PubChem-25522332
REMARK  5 active torsions:
REMARK  status: ('A' for Active; 'I' for Inactive)
REMARK    1  A    between atoms: N_1  and  C_9
REMARK    2  A    between atoms: C_2  and  C_16
REMARK    3  A    between atoms: C_5  and  O_13
REMARK    4  A    between atoms: C_11  and  O_14
REMARK    5  A    between atoms: C_17  and  C_18
REMARK                            x       y       z     vdW  Elec       q    Type
REMARK                         _______ _______ _______ _____ _____    ______ ____
ROOT
ATOM      1  N   UNL     1     -47.014 -12.924 -17.919  0.00  0.00    +0.000 N 
ATOM      2  C   UNL     1     -46.991 -14.290 -18.361  0.00  0.00    +0.000 C 
ATOM      3  O   UNL     1     -47.060 -15.206 -17.502  0.00  0.00    +0.000 OA
ATOM      4  H   UNL     1     -47.600 -12.712 -17.158  0.00  0.00    +0.000 HD
ENDROOT
BRANCH   1   9
ATOM      5  C   UNL     1     -44.760  -9.755 -19.640  0.00  0.00    +0.000 A 
ATOM      6  C   UNL     1     -44.191 -10.590 -18.667  0.00  0.00    +0.000 A 
ATOM      7  C   UNL     1     -44.932 -11.628 -18.094  0.00  0.00    +0.000 A 
ATOM      8  C   UNL     1     -44.284 -12.490 -17.066  0.00  0.00    +0.000 C 
ATOM      9  C   UNL     1     -46.263 -11.838 -18.484  0.00  0.00    +0.000 A 
ATOM     10  C   UNL     1     -46.824 -11.015 -19.473  0.00  0.00    +0.000 A 
ATOM     11  C   UNL     1     -46.085  -9.970 -20.047  0.00  0.00    +0.000 A 
BRANCH   5  13
ATOM     12  C   UNL     1     -43.622  -7.563 -19.485  0.00  0.00    +0.000 C 
ATOM     13  O   UNL     1     -44.030  -8.710 -20.217  0.00  0.00    +0.000 OA
ENDBRANCH   5  13
BRANCH  11  14
ATOM     14  O   UNL     1     -46.648  -9.136 -21.019  0.00  0.00    +0.000 OA
ATOM     15  C   UNL     1     -47.383  -7.963 -20.693  0.00  0.00    +0.000 C 
ENDBRANCH  11  14
ENDBRANCH   1   9
BRANCH   2  16
ATOM     16  C   UNL     1     -46.949 -14.666 -19.784  0.00  0.00    +0.000 C 
ATOM     17  C   UNL     1     -45.898 -15.259 -20.341  0.00  0.00    +0.000 C 
BRANCH  17  18
ATOM     18  C   UNL     1     -45.851 -15.655 -21.757  0.00  0.00    +0.000 A 
ATOM     19  C   UNL     1     -45.522 -16.885 -22.309  0.00  0.00    +0.000 A 
ATOM     20  C   UNL     1     -45.141 -18.107 -21.535  0.00  0.00    +0.000 C 
ATOM     21  N   UNL     1     -45.591 -16.814 -23.658  0.00  0.00    +0.000 N 
ATOM     22  C   UNL     1     -45.961 -15.542 -23.943  0.00  0.00    +0.000 A 
ATOM     23  C   UNL     1     -46.170 -14.991 -25.314  0.00  0.00    +0.000 C 
ATOM     24  C   UNL     1     -46.133 -14.790 -22.795  0.00  0.00    +0.000 A 
ATOM     25  C   UNL     1     -45.326 -17.868 -24.611  0.00  0.00    +0.000 A 
ATOM     26  N   UNL     1     -46.219 -18.825 -24.932  0.00  0.00    +0.000 NA
ATOM     27  O   UNL     1     -45.640 -19.592 -25.805  0.00  0.00    +0.000 OA
ATOM     28  C   UNL     1     -44.425 -19.174 -26.057  0.00  0.00    +0.000 A 
ATOM     29  C   UNL     1     -43.495 -19.831 -27.012  0.00  0.00    +0.000 C 
ATOM     30  C   UNL     1     -44.143 -18.047 -25.312  0.00  0.00    +0.000 A 
ENDBRANCH  17  18
ENDBRANCH   2  16
TORSDOF 5
ENDMDL
MODEL 3
REMARK VINA RESULT:      -6.0      7.224     11.730
REMARK  Name = ZINC000012801021 ZINC12801021 MolPort-005-751-258 PubChem-25522332
REMARK  5 active torsions:
REMARK  status: ('A' for Active; 'I' for Inactive)
REMARK    1  A    between atoms: N_1  and  C_9
REMARK    2  A    between atoms: C_2  and  C_16
REMARK    3  A    between atoms: C_5  and  O_13
REMARK    4  A    between atoms: C_11  and  O_14
REMARK    5  A    between atoms: C_17  and  C_18
REMARK                            x       y       z     vdW  Elec       q    Type
REMARK                         _______ _______ _______ _____ _____    ______ ____
ROOT
ATOM      1  N   UNL     1     -46.839  -4.041 -31.111  0.00  0.00    +0.000 N 
ATOM      2  C   UNL     1     -47.091  -4.781 -29.907  0.00  0.00    +0.000 C 
ATOM      3  O   UNL     1     -47.756  -4.235 -28.989  0.00  0.00    +0.000 OA
ATOM      4  H   UNL     1     -47.562  -3.459 -31.437  0.00  0.00    +0.000 HD
ENDROOT
BRANCH   1   9
ATOM      5  C   UNL     1     -43.294  -4.087 -33.460  0.00  0.00    +0.000 A 
ATOM      6  C   UNL     1     -44.376  -4.920 -33.783  0.00  0.00    +0.000 A 
ATOM      7  C   UNL     1     -45.540  -4.913 -33.009  0.00  0.00    +0.000 A 
ATOM      8  C   UNL     1     -46.663  -5.813 -33.392  0.00  0.00    +0.000 C 
ATOM      9  C   UNL     1     -45.631  -4.073 -31.888  0.00  0.00    +0.000 A 
ATOM     10  C   UNL     1     -44.556  -3.226 -31.579  0.00  0.00    +0.000 A 
ATOM     11  C   UNL     1     -43.385  -3.234 -32.350  0.00  0.00    +0.000 A 
BRANCH   5  13
ATOM     12  C   UNL     1     -41.615  -5.263 -34.848  0.00  0.00    +0.000 C 
ATOM     13  O   UNL     1     -42.123  -4.091 -34.225  0.00  0.00    +0.000 OA
ENDBRANCH   5  13
BRANCH  11  14
ATOM     14  O   UNL     1     -42.304  -2.405 -32.033  0.00  0.00    +0.000 OA
ATOM     15  C   UNL     1     -42.293  -1.013 -32.322  0.00  0.00    +0.000 C 
ENDBRANCH  11  14
ENDBRANCH   1   9
BRANCH   2  16
ATOM     16  C   UNL     1     -46.656  -6.175 -29.722  0.00  0.00    +0.000 C 
ATOM     17  C   UNL     1     -47.480  -7.209 -29.852  0.00  0.00    +0.000 C 
BRANCH  17  18
ATOM     18  C   UNL     1     -47.054  -8.607 -29.686  0.00  0.00    +0.000 A 
ATOM     19  C   UNL     1     -46.981  -9.366 -28.525  0.00  0.00    +0.000 A 
ATOM     20  C   UNL     1     -47.344  -8.889 -27.156  0.00  0.00    +0.000 C 
ATOM     21  N   UNL     1     -46.523 -10.605 -28.818  0.00  0.00    +0.000 N 
ATOM     22  C   UNL     1     -46.312 -10.615 -30.156  0.00  0.00    +0.000 A 
ATOM     23  C   UNL     1     -45.806 -11.780 -30.940  0.00  0.00    +0.000 C 
ATOM     24  C   UNL     1     -46.627  -9.399 -30.733  0.00  0.00    +0.000 A 
ATOM     25  C   UNL     1     -46.300 -11.700 -27.901  0.00  0.00    +0.000 A 
ATOM     26  N   UNL     1     -47.279 -12.511 -27.455  0.00  0.00    +0.000 NA
ATOM     27  O   UNL     1     -46.715 -13.366 -26.656  0.00  0.00    +0.000 OA
ATOM     28  C   UNL     1     -45.428 -13.142 -26.570  0.00  0.00    +0.000 A 
ATOM     29  C   UNL     1     -44.493 -13.942 -25.737  0.00  0.00    +0.000 C 
ATOM     30  C   UNL     1     -45.077 -12.063 -27.357  0.00  0.00    +0.000 A 
ENDBRANCH  17  18
ENDBRANCH   2  16
TORSDOF 5
ENDMDL
