MODEL 1
REMARK VINA RESULT:      -7.1      0.000      0.000
REMARK  Name = ZINC000018200369
REMARK  2 active torsions:
REMARK  status: ('A' for Active; 'I' for Inactive)
REMARK    1  A    between atoms: C_1  and  C_31
REMARK    2  A    between atoms: C_3  and  O_4
REMARK                            x       y       z     vdW  Elec       q    Type
REMARK                         _______ _______ _______ _____ _____    ______ ____
ROOT
ATOM      1  C   UNL     1     -46.070  -5.746 -32.093  0.00  0.00    +0.000 C 
ATOM      2  C   UNL     1     -46.322  -5.772 -30.617  0.00  0.00    +0.000 A 
ATOM      3  C   UNL     1     -47.035  -4.958 -29.774  0.00  0.00    +0.000 A 
ATOM      4  N   UNL     1     -46.933  -5.415 -28.506  0.00  0.00    +0.000 NA
ATOM      5  N   UNL     1     -46.171  -6.504 -28.517  0.00  0.00    +0.000 N 
ATOM      6  C   UNL     1     -45.806  -6.714 -29.795  0.00  0.00    +0.000 A 
ATOM      7  N   UNL     1     -45.001  -7.781 -30.278  0.00  0.00    +0.000 N 
ATOM      8  C   UNL     1     -44.771  -7.890 -31.695  0.00  0.00    +0.000 C 
ATOM      9  C   UNL     1     -45.266  -6.962 -32.569  0.00  0.00    +0.000 C 
ATOM     10  C   UNL     1     -45.083  -7.166 -34.027  0.00  0.00    +0.000 C 
ATOM     11  O   UNL     1     -45.600  -6.369 -34.853  0.00  0.00    +0.000 OA
ATOM     12  C   UNL     1     -44.260  -8.308 -34.547  0.00  0.00    +0.000 C 
ATOM     13  C   UNL     1     -44.264  -9.497 -33.589  0.00  0.00    +0.000 C 
ATOM     14  C   UNL     1     -43.215 -10.488 -34.044  0.00  0.00    +0.000 C 
ATOM     15  C   UNL     1     -45.618 -10.191 -33.608  0.00  0.00    +0.000 C 
ATOM     16  C   UNL     1     -43.919  -9.037 -32.171  0.00  0.00    +0.000 C 
ATOM     17  H   UNL     1     -45.922  -7.053 -27.739  0.00  0.00    +0.000 HD
ATOM     18  H   UNL     1     -44.608  -8.435 -29.655  0.00  0.00    +0.000 HD
ENDROOT
BRANCH   1  29
ATOM     19  C   UNL     1     -47.575  -3.648 -33.695  0.00  0.00    +0.000 C 
ATOM     20  C   UNL     1     -46.158  -3.459 -33.270  0.00  0.00    +0.000 A 
ATOM     21  N   UNL     1     -45.524  -2.308 -33.619  0.00  0.00    +0.000 NA
ATOM     22  C   UNL     1     -44.234  -2.077 -33.269  0.00  0.00    +0.000 A 
ATOM     23  C   UNL     1     -43.598  -0.888 -33.637  0.00  0.00    +0.000 A 
ATOM     24  C   UNL     1     -42.267  -0.668 -33.267  0.00  0.00    +0.000 A 
ATOM     25  C   UNL     1     -41.572  -1.635 -32.532  0.00  0.00    +0.000 A 
ATOM     26  C   UNL     1     -42.205  -2.826 -32.162  0.00  0.00    +0.000 A 
ATOM     27  C   UNL     1     -43.535  -3.049 -32.529  0.00  0.00    +0.000 A 
ATOM     28  N   UNL     1     -44.164  -4.199 -32.179  0.00  0.00    +0.000 NA
ATOM     29  C   UNL     1     -45.459  -4.437 -32.524  0.00  0.00    +0.000 A 
ENDBRANCH   1  29
BRANCH   3  30
ATOM     30  O   UNL     1     -47.756  -3.830 -30.141  0.00  0.00    +0.000 OA
ATOM     31  H   UNL     1     -47.539  -2.995 -29.777  0.00  0.00    +0.000 HD
ENDBRANCH   3  30
TORSDOF 2
ENDMDL
MODEL 2
REMARK VINA RESULT:      -6.6      2.407      4.713
REMARK  Name = ZINC000018200369
REMARK  2 active torsions:
REMARK  status: ('A' for Active; 'I' for Inactive)
REMARK    1  A    between atoms: C_1  and  C_31
REMARK    2  A    between atoms: C_3  and  O_4
REMARK                            x       y       z     vdW  Elec       q    Type
REMARK                         _______ _______ _______ _____ _____    ______ ____
ROOT
ATOM      1  C   UNL     1     -44.012  -6.523 -31.337  0.00  0.00    +0.000 C 
ATOM      2  C   UNL     1     -44.972  -7.016 -32.375  0.00  0.00    +0.000 A 
ATOM      3  C   UNL     1     -44.867  -7.215 -33.729  0.00  0.00    +0.000 A 
ATOM      4  N   UNL     1     -46.044  -7.669 -34.215  0.00  0.00    +0.000 NA
ATOM      5  N   UNL     1     -46.901  -7.765 -33.203  0.00  0.00    +0.000 N 
ATOM      6  C   UNL     1     -46.247  -7.370 -32.096  0.00  0.00    +0.000 A 
ATOM      7  N   UNL     1     -46.771  -7.329 -30.776  0.00  0.00    +0.000 N 
ATOM      8  C   UNL     1     -45.900  -6.947 -29.695  0.00  0.00    +0.000 C 
ATOM      9  C   UNL     1     -44.605  -6.576 -29.923  0.00  0.00    +0.000 C 
ATOM     10  C   UNL     1     -43.718  -6.281 -28.770  0.00  0.00    +0.000 C 
ATOM     11  O   UNL     1     -42.500  -6.017 -28.952  0.00  0.00    +0.000 OA
ATOM     12  C   UNL     1     -44.257  -6.265 -27.370  0.00  0.00    +0.000 C 
ATOM     13  C   UNL     1     -45.459  -7.194 -27.211  0.00  0.00    +0.000 C 
ATOM     14  C   UNL     1     -46.102  -6.925 -25.868  0.00  0.00    +0.000 C 
ATOM     15  C   UNL     1     -45.016  -8.648 -27.247  0.00  0.00    +0.000 C 
ATOM     16  C   UNL     1     -46.489  -6.921 -28.309  0.00  0.00    +0.000 C 
ATOM     17  H   UNL     1     -47.836  -8.069 -33.254  0.00  0.00    +0.000 HD
ATOM     18  H   UNL     1     -47.714  -7.559 -30.602  0.00  0.00    +0.000 HD
ENDROOT
BRANCH   1  29
ATOM     19  C   UNL     1     -41.147  -6.047 -32.232  0.00  0.00    +0.000 C 
ATOM     20  C   UNL     1     -42.137  -4.937 -32.108  0.00  0.00    +0.000 A 
ATOM     21  N   UNL     1     -41.734  -3.674 -32.404  0.00  0.00    +0.000 NA
ATOM     22  C   UNL     1     -42.583  -2.619 -32.307  0.00  0.00    +0.000 A 
ATOM     23  C   UNL     1     -42.151  -1.327 -32.615  0.00  0.00    +0.000 A 
ATOM     24  C   UNL     1     -43.041  -0.252 -32.508  0.00  0.00    +0.000 A 
ATOM     25  C   UNL     1     -44.360  -0.470 -32.093  0.00  0.00    +0.000 A 
ATOM     26  C   UNL     1     -44.796  -1.763 -31.784  0.00  0.00    +0.000 A 
ATOM     27  C   UNL     1     -43.910  -2.838 -31.890  0.00  0.00    +0.000 A 
ATOM     28  N   UNL     1     -44.316  -4.099 -31.594  0.00  0.00    +0.000 NA
ATOM     29  C   UNL     1     -43.471  -5.161 -31.692  0.00  0.00    +0.000 A 
ENDBRANCH   1  29
BRANCH   3  30
ATOM     30  O   UNL     1     -43.737  -6.990 -34.504  0.00  0.00    +0.000 OA
ATOM     31  H   UNL     1     -43.117  -7.679 -34.640  0.00  0.00    +0.000 HD
ENDBRANCH   3  30
TORSDOF 2
ENDMDL
MODEL 3
REMARK VINA RESULT:      -6.6     10.251     13.212
REMARK  Name = ZINC000018200369
REMARK  2 active torsions:
REMARK  status: ('A' for Active; 'I' for Inactive)
REMARK    1  A    between atoms: C_1  and  C_31
REMARK    2  A    between atoms: C_3  and  O_4
REMARK                            x       y       z     vdW  Elec       q    Type
REMARK                         _______ _______ _______ _____ _____    ______ ____
ROOT
ATOM      1  C   UNL     1     -43.669 -16.541 -25.371  0.00  0.00    +0.000 C 
ATOM      2  C   UNL     1     -44.589 -17.702 -25.150  0.00  0.00    +0.000 A 
ATOM      3  C   UNL     1     -44.962 -18.764 -25.934  0.00  0.00    +0.000 A 
ATOM      4  N   UNL     1     -45.844 -19.538 -25.264  0.00  0.00    +0.000 NA
ATOM      5  N   UNL     1     -46.045 -18.995 -24.067  0.00  0.00    +0.000 N 
ATOM      6  C   UNL     1     -45.284 -17.888 -24.004  0.00  0.00    +0.000 A 
ATOM      7  N   UNL     1     -45.170 -17.003 -22.899  0.00  0.00    +0.000 N 
ATOM      8  C   UNL     1     -44.246 -15.902 -22.984  0.00  0.00    +0.000 C 
ATOM      9  C   UNL     1     -43.524 -15.666 -24.120  0.00  0.00    +0.000 C 
ATOM     10  C   UNL     1     -42.516 -14.577 -24.128  0.00  0.00    +0.000 C 
ATOM     11  O   UNL     1     -41.781 -14.394 -25.134  0.00  0.00    +0.000 OA
ATOM     12  C   UNL     1     -42.369 -13.656 -22.952  0.00  0.00    +0.000 C 
ATOM     13  C   UNL     1     -42.774 -14.332 -21.644  0.00  0.00    +0.000 C 
ATOM     14  C   UNL     1     -42.854 -13.278 -20.561  0.00  0.00    +0.000 C 
ATOM     15  C   UNL     1     -41.733 -15.363 -21.233  0.00  0.00    +0.000 C 
ATOM     16  C   UNL     1     -44.148 -14.988 -21.790  0.00  0.00    +0.000 C 
ATOM     17  H   UNL     1     -46.637 -19.339 -23.359  0.00  0.00    +0.000 HD
ATOM     18  H   UNL     1     -45.713 -17.140 -22.088  0.00  0.00    +0.000 HD
ENDROOT
BRANCH   1  29
ATOM     19  C   UNL     1     -42.168 -16.685 -28.009  0.00  0.00    +0.000 C 
ATOM     20  C   UNL     1     -43.366 -15.816 -27.822  0.00  0.00    +0.000 A 
ATOM     21  N   UNL     1     -43.791 -15.064 -28.871  0.00  0.00    +0.000 NA
ATOM     22  C   UNL     1     -44.871 -14.249 -28.765  0.00  0.00    +0.000 A 
ATOM     23  C   UNL     1     -45.294 -13.482 -29.854  0.00  0.00    +0.000 A 
ATOM     24  C   UNL     1     -46.409 -12.647 -29.725  0.00  0.00    +0.000 A 
ATOM     25  C   UNL     1     -47.100 -12.578 -28.510  0.00  0.00    +0.000 A 
ATOM     26  C   UNL     1     -46.679 -13.344 -27.417  0.00  0.00    +0.000 A 
ATOM     27  C   UNL     1     -45.566 -14.180 -27.543  0.00  0.00    +0.000 A 
ATOM     28  N   UNL     1     -45.144 -14.929 -26.493  0.00  0.00    +0.000 NA
ATOM     29  C   UNL     1     -44.064 -15.751 -26.593  0.00  0.00    +0.000 A 
ENDBRANCH   1  29
BRANCH   3  30
ATOM     30  O   UNL     1     -44.517 -19.025 -27.223  0.00  0.00    +0.000 OA
ATOM     31  H   UNL     1     -44.837 -18.516 -27.942  0.00  0.00    +0.000 HD
ENDBRANCH   3  30
TORSDOF 2
ENDMDL
