MODEL 1
REMARK VINA RESULT:      -7.1      0.000      0.000
REMARK  Name = ZINC000019138008
REMARK  5 active torsions:
REMARK  status: ('A' for Active; 'I' for Inactive)
REMARK    1  A    between atoms: C_1  and  C_23
REMARK    2  A    between atoms: C_2  and  O_3
REMARK    3  A    between atoms: C_7  and  C_9
REMARK    4  A    between atoms: C_12  and  C_15
REMARK    5  A    between atoms: C_23  and  C_29
REMARK                            x       y       z     vdW  Elec       q    Type
REMARK                         _______ _______ _______ _____ _____    ______ ____
ROOT
ATOM      1  C   UNL     1     -45.504 -17.093 -25.121  0.00  0.00    +0.000 C 
ATOM      2  C   UNL     1     -44.853 -16.941 -26.272  0.00  0.00    +0.000 C 
ATOM      3  C   UNL     1     -44.882 -15.549 -26.643  0.00  0.00    +0.000 C 
ATOM      4  O   UNL     1     -44.378 -15.059 -27.688  0.00  0.00    +0.000 OA
ATOM      5  N   UNL     1     -45.581 -14.806 -25.659  0.00  0.00    +0.000 N 
ATOM      6  C   UNL     1     -46.000 -15.748 -24.618  0.00  0.00    +0.000 C 
ATOM      7  C   UNL     1     -45.972 -13.429 -25.753  0.00  0.00    +0.000 A 
ATOM      8  N   UNL     1     -46.805 -12.950 -26.698  0.00  0.00    +0.000 NA
ATOM      9  N   UNL     1     -47.023 -11.640 -26.585  0.00  0.00    +0.000 NA
ATOM     10  C   UNL     1     -46.371 -11.052 -25.553  0.00  0.00    +0.000 A 
ATOM     11  S   UNL     1     -45.466 -12.206 -24.719  0.00  0.00    +0.000 S 
ENDROOT
BRANCH   6  12
ATOM     12  C   UNL     1     -45.371 -15.396 -23.299  0.00  0.00    +0.000 A 
ATOM     13  C   UNL     1     -46.195 -15.095 -22.210  0.00  0.00    +0.000 A 
ATOM     14  C   UNL     1     -45.635 -14.769 -20.972  0.00  0.00    +0.000 A 
ATOM     15  C   UNL     1     -44.241 -14.742 -20.814  0.00  0.00    +0.000 A 
ATOM     16  C   UNL     1     -43.416 -15.043 -21.903  0.00  0.00    +0.000 A 
ATOM     17  C   UNL     1     -43.977 -15.369 -23.141  0.00  0.00    +0.000 A 
BRANCH  15  18
ATOM     18  C   UNL     1     -43.613 -14.398 -19.499  0.00  0.00    +0.000 C 
ATOM     19  C   UNL     1     -43.737 -15.548 -18.518  0.00  0.00    +0.000 C 
ATOM     20  C   UNL     1     -44.229 -13.141 -18.912  0.00  0.00    +0.000 C 
ENDBRANCH  15  18
ENDBRANCH   6  12
BRANCH   2  21
ATOM     21  O   UNL     1     -44.257 -17.957 -27.010  0.00  0.00    +0.000 OA
ATOM     22  H   UNL     1     -43.462 -17.793 -27.478  0.00  0.00    +0.000 HD
ENDBRANCH   2  21
BRANCH   1  23
ATOM     23  C   UNL     1     -45.684 -18.387 -24.418  0.00  0.00    +0.000 C 
ATOM     24  O   UNL     1     -46.339 -19.305 -24.984  0.00  0.00    +0.000 OA
BRANCH  23  29
ATOM     25  C   UNL     1     -43.474 -19.329 -19.168  0.00  0.00    +0.000 C 
ATOM     26  C   UNL     1     -44.039 -19.089 -20.520  0.00  0.00    +0.000 A 
ATOM     27  C   UNL     1     -43.221 -19.197 -21.648  0.00  0.00    +0.000 A 
ATOM     28  C   UNL     1     -43.754 -18.971 -22.921  0.00  0.00    +0.000 A 
ATOM     29  C   UNL     1     -45.108 -18.643 -23.079  0.00  0.00    +0.000 A 
ATOM     30  C   UNL     1     -45.917 -18.524 -21.939  0.00  0.00    +0.000 A 
ATOM     31  C   UNL     1     -45.386 -18.749 -20.665  0.00  0.00    +0.000 A 
ENDBRANCH  23  29
ENDBRANCH   1  23
TORSDOF 5
ENDMDL
MODEL 2
REMARK VINA RESULT:      -6.5     10.233     15.307
REMARK  Name = ZINC000019138008
REMARK  5 active torsions:
REMARK  status: ('A' for Active; 'I' for Inactive)
REMARK    1  A    between atoms: C_1  and  C_23
REMARK    2  A    between atoms: C_2  and  O_3
REMARK    3  A    between atoms: C_7  and  C_9
REMARK    4  A    between atoms: C_12  and  C_15
REMARK    5  A    between atoms: C_23  and  C_29
REMARK                            x       y       z     vdW  Elec       q    Type
REMARK                         _______ _______ _______ _____ _____    ______ ____
ROOT
ATOM      1  C   UNL     1     -46.234  -4.556 -32.068  0.00  0.00    +0.000 C 
ATOM      2  C   UNL     1     -46.964  -4.553 -30.953  0.00  0.00    +0.000 C 
ATOM      3  C   UNL     1     -46.891  -5.857 -30.346  0.00  0.00    +0.000 C 
ATOM      4  O   UNL     1     -47.481  -6.207 -29.290  0.00  0.00    +0.000 OA
ATOM      5  N   UNL     1     -46.063  -6.703 -31.126  0.00  0.00    +0.000 N 
ATOM      6  C   UNL     1     -45.578  -5.912 -32.261  0.00  0.00    +0.000 C 
ATOM      7  C   UNL     1     -45.884  -8.115 -30.949  0.00  0.00    +0.000 A 
ATOM      8  N   UNL     1     -46.883  -9.015 -31.045  0.00  0.00    +0.000 NA
ATOM      9  N   UNL     1     -46.478 -10.268 -30.841  0.00  0.00    +0.000 NA
ATOM     10  C   UNL     1     -45.154 -10.391 -30.580  0.00  0.00    +0.000 A 
ATOM     11  S   UNL     1     -44.426  -8.870 -30.598  0.00  0.00    +0.000 S 
ENDROOT
BRANCH   6  12
ATOM     12  C   UNL     1     -44.079  -5.799 -32.227  0.00  0.00    +0.000 A 
ATOM     13  C   UNL     1     -43.463  -5.244 -31.102  0.00  0.00    +0.000 A 
ATOM     14  C   UNL     1     -42.072  -5.133 -31.044  0.00  0.00    +0.000 A 
ATOM     15  C   UNL     1     -41.284  -5.577 -32.117  0.00  0.00    +0.000 A 
ATOM     16  C   UNL     1     -41.900  -6.132 -33.243  0.00  0.00    +0.000 A 
ATOM     17  C   UNL     1     -43.291  -6.244 -33.300  0.00  0.00    +0.000 A 
BRANCH  15  18
ATOM     18  C   UNL     1     -39.791  -5.471 -32.082  0.00  0.00    +0.000 C 
ATOM     19  C   UNL     1     -39.315  -4.229 -32.810  0.00  0.00    +0.000 C 
ATOM     20  C   UNL     1     -39.142  -6.707 -32.677  0.00  0.00    +0.000 C 
ENDBRANCH  15  18
ENDBRANCH   6  12
BRANCH   2  21
ATOM     21  O   UNL     1     -47.694  -3.477 -30.463  0.00  0.00    +0.000 OA
ATOM     22  H   UNL     1     -47.849  -3.397 -29.542  0.00  0.00    +0.000 HD
ENDBRANCH   2  21
BRANCH   1  23
ATOM     23  C   UNL     1     -46.064  -3.389 -32.967  0.00  0.00    +0.000 C 
ATOM     24  O   UNL     1     -46.979  -3.110 -33.789  0.00  0.00    +0.000 OA
BRANCH  23  29
ATOM     25  C   UNL     1     -41.323  -0.097 -32.798  0.00  0.00    +0.000 C 
ATOM     26  C   UNL     1     -42.545  -0.940 -32.839  0.00  0.00    +0.000 A 
ATOM     27  C   UNL     1     -43.616  -0.660 -31.987  0.00  0.00    +0.000 A 
ATOM     28  C   UNL     1     -44.766  -1.454 -32.027  0.00  0.00    +0.000 A 
ATOM     29  C   UNL     1     -44.859  -2.529 -32.922  0.00  0.00    +0.000 A 
ATOM     30  C   UNL     1     -43.772  -2.811 -33.764  0.00  0.00    +0.000 A 
ATOM     31  C   UNL     1     -42.621  -2.018 -33.725  0.00  0.00    +0.000 A 
ENDBRANCH  23  29
ENDBRANCH   1  23
TORSDOF 5
ENDMDL
MODEL 3
REMARK VINA RESULT:      -6.5     10.902     14.817
REMARK  Name = ZINC000019138008
REMARK  5 active torsions:
REMARK  status: ('A' for Active; 'I' for Inactive)
REMARK    1  A    between atoms: C_1  and  C_23
REMARK    2  A    between atoms: C_2  and  O_3
REMARK    3  A    between atoms: C_7  and  C_9
REMARK    4  A    between atoms: C_12  and  C_15
REMARK    5  A    between atoms: C_23  and  C_29
REMARK                            x       y       z     vdW  Elec       q    Type
REMARK                         _______ _______ _______ _____ _____    ______ ____
ROOT
ATOM      1  C   UNL     1     -45.854  -5.014 -33.750  0.00  0.00    +0.000 C 
ATOM      2  C   UNL     1     -46.515  -5.708 -34.674  0.00  0.00    +0.000 C 
ATOM      3  C   UNL     1     -46.124  -7.091 -34.585  0.00  0.00    +0.000 C 
ATOM      4  O   UNL     1     -46.542  -8.020 -35.326  0.00  0.00    +0.000 OA
ATOM      5  N   UNL     1     -45.177  -7.255 -33.542  0.00  0.00    +0.000 N 
ATOM      6  C   UNL     1     -44.967  -5.938 -32.934  0.00  0.00    +0.000 C 
ATOM      7  C   UNL     1     -44.424  -8.442 -33.257  0.00  0.00    +0.000 A 
ATOM      8  N   UNL     1     -43.558  -9.006 -34.122  0.00  0.00    +0.000 NA
ATOM      9  N   UNL     1     -42.975 -10.102 -33.637  0.00  0.00    +0.000 NA
ATOM     10  C   UNL     1     -43.364 -10.432 -32.382  0.00  0.00    +0.000 A 
ATOM     11  S   UNL     1     -44.494  -9.312 -31.822  0.00  0.00    +0.000 S 
ENDROOT
BRANCH   6  12
ATOM     12  C   UNL     1     -45.380  -5.949 -31.488  0.00  0.00    +0.000 A 
ATOM     13  C   UNL     1     -44.421  -5.684 -30.505  0.00  0.00    +0.000 A 
ATOM     14  C   UNL     1     -44.781  -5.684 -29.155  0.00  0.00    +0.000 A 
ATOM     15  C   UNL     1     -46.105  -5.951 -28.777  0.00  0.00    +0.000 A 
ATOM     16  C   UNL     1     -47.064  -6.216 -29.760  0.00  0.00    +0.000 A 
ATOM     17  C   UNL     1     -46.704  -6.216 -31.110  0.00  0.00    +0.000 A 
BRANCH  15  18
ATOM     18  C   UNL     1     -46.518  -5.955 -27.338  0.00  0.00    +0.000 C 
ATOM     19  C   UNL     1     -46.943  -4.571 -26.887  0.00  0.00    +0.000 C 
ATOM     20  C   UNL     1     -45.401  -6.474 -26.451  0.00  0.00    +0.000 C 
ENDBRANCH  15  18
ENDBRANCH   6  12
BRANCH   2  21
ATOM     21  O   UNL     1     -47.421  -5.186 -35.590  0.00  0.00    +0.000 OA
ATOM     22  H   UNL     1     -47.388  -4.277 -35.815  0.00  0.00    +0.000 HD
ENDBRANCH   2  21
BRANCH   1  23
ATOM     23  C   UNL     1     -45.995  -3.553 -33.532  0.00  0.00    +0.000 C 
ATOM     24  O   UNL     1     -47.137  -3.028 -33.624  0.00  0.00    +0.000 OA
BRANCH  23  29
ATOM     25  C   UNL     1     -41.528  -0.135 -32.225  0.00  0.00    +0.000 C 
ATOM     26  C   UNL     1     -42.674  -1.018 -32.563  0.00  0.00    +0.000 A 
ATOM     27  C   UNL     1     -42.485  -2.118 -33.404  0.00  0.00    +0.000 A 
ATOM     28  C   UNL     1     -43.564  -2.948 -33.720  0.00  0.00    +0.000 A 
ATOM     29  C   UNL     1     -44.839  -2.692 -33.195  0.00  0.00    +0.000 A 
ATOM     30  C   UNL     1     -45.021  -1.577 -32.363  0.00  0.00    +0.000 A 
ATOM     31  C   UNL     1     -43.942  -0.745 -32.045  0.00  0.00    +0.000 A 
ENDBRANCH  23  29
ENDBRANCH   1  23
TORSDOF 5
ENDMDL
