MODEL 1
REMARK VINA RESULT:      -6.3      0.000      0.000
REMARK  Name = ZINC000009112329 ZINC09112329 PubChem-40938212
REMARK  5 active torsions:
REMARK  status: ('A' for Active; 'I' for Inactive)
REMARK    1  A    between atoms: N_1  and  C_10
REMARK    2  A    between atoms: C_2  and  C_18
REMARK    3  A    between atoms: C_5  and  O_15
REMARK    4  A    between atoms: O_15  and  C_17
REMARK    5  A    between atoms: C_19  and  C_20
REMARK                            x       y       z     vdW  Elec       q    Type
REMARK                         _______ _______ _______ _____ _____    ______ ____
ROOT
ATOM      1  N   UNL     1     -46.935  -6.881 -31.827  0.00  0.00    +0.000 N 
ATOM      2  C   UNL     1     -47.161  -5.589 -31.249  0.00  0.00    +0.000 C 
ATOM      3  O   UNL     1     -47.383  -4.612 -32.012  0.00  0.00    +0.000 OA
ATOM      4  H   UNL     1     -47.189  -6.988 -32.773  0.00  0.00    +0.000 HD
ENDROOT
BRANCH   1  10
ATOM      5  C   UNL     1     -44.987  -8.085 -30.851  0.00  0.00    +0.000 A 
ATOM      6  C   UNL     1     -44.482  -9.194 -30.142  0.00  0.00    +0.000 A 
ATOM      7  C   UNL     1     -45.350 -10.219 -29.786  0.00  0.00    +0.000 A 
ATOM      8  C   UNL     1     -46.670 -10.177 -30.108  0.00  0.00    +0.000 A 
ATOM      9  C   UNL     1     -47.218  -9.101 -30.793  0.00  0.00    +0.000 A 
ATOM     10  C   UNL     1     -46.378  -8.035 -31.180  0.00  0.00    +0.000 A 
ATOM     11  O   UNL     1     -47.333 -11.294 -29.653  0.00  0.00    +0.000 OA
ATOM     12  C   UNL     1     -46.423 -12.168 -28.985  0.00  0.00    +0.000 C 
ATOM     13  C   UNL     1     -45.046 -11.473 -29.048  0.00  0.00    +0.000 C 
ATOM     14  C   UNL     1     -46.848 -12.337 -27.541  0.00  0.00    +0.000 C 
BRANCH   5  15
ATOM     15  O   UNL     1     -44.062  -7.094 -31.212  0.00  0.00    +0.000 OA
BRANCH  15  17
ATOM     16  C   UNL     1     -43.574  -4.750 -31.077  0.00  0.00    +0.000 C 
ATOM     17  C   UNL     1     -43.587  -6.076 -30.341  0.00  0.00    +0.000 C 
ENDBRANCH  15  17
ENDBRANCH   5  15
ENDBRANCH   1  10
BRANCH   2  18
ATOM     18  C   UNL     1     -47.186  -5.400 -29.789  0.00  0.00    +0.000 C 
ATOM     19  C   UNL     1     -47.063  -4.204 -29.226  0.00  0.00    +0.000 C 
BRANCH  19  20
ATOM     20  C   UNL     1     -47.100  -4.033 -27.768  0.00  0.00    +0.000 A 
ATOM     21  C   UNL     1     -46.950  -5.056 -26.826  0.00  0.00    +0.000 A 
ATOM     22  C   UNL     1     -47.073  -4.389 -25.627  0.00  0.00    +0.000 A 
ATOM     23  C   UNL     1     -47.011  -4.871 -24.324  0.00  0.00    +0.000 A 
ATOM     24  C   UNL     1     -47.169  -3.943 -23.279  0.00  0.00    +0.000 A 
ATOM     25  C   UNL     1     -47.375  -2.577 -23.558  0.00  0.00    +0.000 A 
ATOM     26  C   UNL     1     -47.430  -2.119 -24.888  0.00  0.00    +0.000 A 
ATOM     27  C   UNL     1     -47.275  -3.063 -25.898  0.00  0.00    +0.000 A 
ATOM     28  O   UNL     1     -47.291  -2.864 -27.190  0.00  0.00    +0.000 OA
ENDBRANCH  19  20
ENDBRANCH   2  18
TORSDOF 5
ENDMDL
MODEL 2
REMARK VINA RESULT:      -6.2      2.501      2.997
REMARK  Name = ZINC000009112329 ZINC09112329 PubChem-40938212
REMARK  5 active torsions:
REMARK  status: ('A' for Active; 'I' for Inactive)
REMARK    1  A    between atoms: N_1  and  C_10
REMARK    2  A    between atoms: C_2  and  C_18
REMARK    3  A    between atoms: C_5  and  O_15
REMARK    4  A    between atoms: O_15  and  C_17
REMARK    5  A    between atoms: C_19  and  C_20
REMARK                            x       y       z     vdW  Elec       q    Type
REMARK                         _______ _______ _______ _____ _____    ______ ____
ROOT
ATOM      1  N   UNL     1     -45.721  -5.653 -31.760  0.00  0.00    +0.000 N 
ATOM      2  C   UNL     1     -46.586  -4.581 -31.363  0.00  0.00    +0.000 C 
ATOM      3  O   UNL     1     -47.384  -4.098 -32.210  0.00  0.00    +0.000 OA
ATOM      4  H   UNL     1     -45.950  -6.110 -32.603  0.00  0.00    +0.000 HD
ENDROOT
BRANCH   1  10
ATOM      5  C   UNL     1     -43.287  -5.506 -31.260  0.00  0.00    +0.000 A 
ATOM      6  C   UNL     1     -42.180  -5.942 -30.506  0.00  0.00    +0.000 A 
ATOM      7  C   UNL     1     -42.348  -6.977 -29.595  0.00  0.00    +0.000 A 
ATOM      8  C   UNL     1     -43.554  -7.580 -29.420  0.00  0.00    +0.000 A 
ATOM      9  C   UNL     1     -44.679  -7.178 -30.128  0.00  0.00    +0.000 A 
ATOM     10  C   UNL     1     -44.559  -6.132 -31.067  0.00  0.00    +0.000 A 
ATOM     11  O   UNL     1     -43.485  -8.573 -28.469  0.00  0.00    +0.000 OA
ATOM     12  C   UNL     1     -42.155  -8.676 -27.961  0.00  0.00    +0.000 C 
ATOM     13  C   UNL     1     -41.335  -7.599 -28.702  0.00  0.00    +0.000 C 
ATOM     14  C   UNL     1     -42.156  -8.389 -26.473  0.00  0.00    +0.000 C 
BRANCH   5  15
ATOM     15  O   UNL     1     -43.053  -4.478 -32.186  0.00  0.00    +0.000 OA
BRANCH  15  17
ATOM     16  C   UNL     1     -43.998  -2.446 -33.042  0.00  0.00    +0.000 C 
ATOM     17  C   UNL     1     -43.217  -3.093 -31.914  0.00  0.00    +0.000 C 
ENDBRANCH  15  17
ENDBRANCH   5  15
ENDBRANCH   1  10
BRANCH   2  18
ATOM     18  C   UNL     1     -46.591  -4.077 -29.980  0.00  0.00    +0.000 C 
ATOM     19  C   UNL     1     -47.296  -4.656 -29.015  0.00  0.00    +0.000 C 
BRANCH  19  20
ATOM     20  C   UNL     1     -47.281  -4.145 -27.639  0.00  0.00    +0.000 A 
ATOM     21  C   UNL     1     -47.136  -4.921 -26.485  0.00  0.00    +0.000 A 
ATOM     22  C   UNL     1     -47.198  -3.985 -25.476  0.00  0.00    +0.000 A 
ATOM     23  C   UNL     1     -47.111  -4.147 -24.097  0.00  0.00    +0.000 A 
ATOM     24  C   UNL     1     -47.203  -2.993 -23.299  0.00  0.00    +0.000 A 
ATOM     25  C   UNL     1     -47.372  -1.724 -23.890  0.00  0.00    +0.000 A 
ATOM     26  C   UNL     1     -47.453  -1.592 -25.289  0.00  0.00    +0.000 A 
ATOM     27  C   UNL     1     -47.363  -2.754 -26.050  0.00  0.00    +0.000 A 
ATOM     28  O   UNL     1     -47.414  -2.864 -27.351  0.00  0.00    +0.000 OA
ENDBRANCH  19  20
ENDBRANCH   2  18
TORSDOF 5
ENDMDL
MODEL 3
REMARK VINA RESULT:      -6.1      2.446      5.164
REMARK  Name = ZINC000009112329 ZINC09112329 PubChem-40938212
REMARK  5 active torsions:
REMARK  status: ('A' for Active; 'I' for Inactive)
REMARK    1  A    between atoms: N_1  and  C_10
REMARK    2  A    between atoms: C_2  and  C_18
REMARK    3  A    between atoms: C_5  and  O_15
REMARK    4  A    between atoms: O_15  and  C_17
REMARK    5  A    between atoms: C_19  and  C_20
REMARK                            x       y       z     vdW  Elec       q    Type
REMARK                         _______ _______ _______ _____ _____    ______ ____
ROOT
ATOM      1  N   UNL     1     -45.590  -7.090 -30.886  0.00  0.00    +0.000 N 
ATOM      2  C   UNL     1     -46.748  -7.193 -30.049  0.00  0.00    +0.000 C 
ATOM      3  O   UNL     1     -47.518  -8.180 -30.195  0.00  0.00    +0.000 OA
ATOM      4  H   UNL     1     -45.329  -7.905 -31.375  0.00  0.00    +0.000 HD
ENDROOT
BRANCH   1  10
ATOM      5  C   UNL     1     -43.343  -6.032 -31.065  0.00  0.00    +0.000 A 
ATOM      6  C   UNL     1     -42.561  -4.895 -31.351  0.00  0.00    +0.000 A 
ATOM      7  C   UNL     1     -43.197  -3.696 -31.648  0.00  0.00    +0.000 A 
ATOM      8  C   UNL     1     -44.553  -3.595 -31.662  0.00  0.00    +0.000 A 
ATOM      9  C   UNL     1     -45.367  -4.689 -31.400  0.00  0.00    +0.000 A 
ATOM     10  C   UNL     1     -44.769  -5.929 -31.092  0.00  0.00    +0.000 A 
ATOM     11  O   UNL     1     -44.958  -2.319 -31.982  0.00  0.00    +0.000 OA
ATOM     12  C   UNL     1     -43.821  -1.480 -32.191  0.00  0.00    +0.000 C 
ATOM     13  C   UNL     1     -42.586  -2.381 -31.975  0.00  0.00    +0.000 C 
ATOM     14  C   UNL     1     -43.832  -0.955 -33.612  0.00  0.00    +0.000 C 
BRANCH   5  15
ATOM     15  O   UNL     1     -42.649  -7.209 -30.743  0.00  0.00    +0.000 OA
BRANCH  15  17
ATOM     16  C   UNL     1     -42.559  -6.544 -28.441  0.00  0.00    +0.000 C 
ATOM     17  C   UNL     1     -42.449  -7.694 -29.422  0.00  0.00    +0.000 C 
ENDBRANCH  15  17
ENDBRANCH   5  15
ENDBRANCH   1  10
BRANCH   2  18
ATOM     18  C   UNL     1     -47.021  -6.199 -28.998  0.00  0.00    +0.000 C 
ATOM     19  C   UNL     1     -46.466  -6.268 -27.793  0.00  0.00    +0.000 C 
BRANCH  19  20
ATOM     20  C   UNL     1     -46.743  -5.263 -26.761  0.00  0.00    +0.000 A 
ATOM     21  C   UNL     1     -46.772  -5.499 -25.382  0.00  0.00    +0.000 A 
ATOM     22  C   UNL     1     -47.081  -4.259 -24.866  0.00  0.00    +0.000 A 
ATOM     23  C   UNL     1     -47.247  -3.857 -23.544  0.00  0.00    +0.000 A 
ATOM     24  C   UNL     1     -47.559  -2.506 -23.311  0.00  0.00    +0.000 A 
ATOM     25  C   UNL     1     -47.690  -1.604 -24.387  0.00  0.00    +0.000 A 
ATOM     26  C   UNL     1     -47.513  -2.041 -25.712  0.00  0.00    +0.000 A 
ATOM     27  C   UNL     1     -47.209  -3.385 -25.909  0.00  0.00    +0.000 A 
ATOM     28  O   UNL     1     -47.006  -4.001 -27.043  0.00  0.00    +0.000 OA
ENDBRANCH  19  20
ENDBRANCH   2  18
TORSDOF 5
ENDMDL
