MODEL 1
REMARK VINA RESULT:      -6.6      0.000      0.000
REMARK  Name = ZINC000067641329 MCULE-5536280821 MolPort-016-591-893
REMARK  3 active torsions:
REMARK  status: ('A' for Active; 'I' for Inactive)
REMARK    1  A    between atoms: C_1  and  C_6
REMARK    2  A    between atoms: N_2  and  C_19
REMARK    3  A    between atoms: C_4  and  C_26
REMARK                            x       y       z     vdW  Elec       q    Type
REMARK                         _______ _______ _______ _____ _____    ______ ____
ROOT
ATOM      1  C   UNL     1     -43.967  -5.179 -30.903  0.00  0.00    +0.000 A 
ATOM      2  N   UNL     1     -45.260  -5.457 -31.196  0.00  0.00    +0.000 N 
ATOM      3  N   UNL     1     -45.815  -5.974 -30.114  0.00  0.00    +0.000 NA
ATOM      4  C   UNL     1     -44.844  -6.004 -29.181  0.00  0.00    +0.000 A 
ATOM      5  N   UNL     1     -43.670  -5.514 -29.630  0.00  0.00    +0.000 NA
ENDROOT
BRANCH   1   6
ATOM      6  C   UNL     1     -43.008  -4.479 -31.786  0.00  0.00    +0.000 A 
ATOM      7  C   UNL     1     -41.971  -5.210 -32.377  0.00  0.00    +0.000 A 
ATOM      8  C   UNL     1     -41.078  -4.582 -33.245  0.00  0.00    +0.000 A 
ATOM      9  O   UNL     1     -40.143  -5.242 -33.767  0.00  0.00    +0.000 OA
ATOM     10  N   UNL     1     -41.215  -3.260 -33.529  0.00  0.00    +0.000 N 
ATOM     11  C   UNL     1     -42.214  -2.516 -32.987  0.00  0.00    +0.000 A 
ATOM     12  C   UNL     1     -42.319  -1.159 -33.307  0.00  0.00    +0.000 A 
ATOM     13  C   UNL     1     -43.340  -0.385 -32.751  0.00  0.00    +0.000 A 
ATOM     14  C   UNL     1     -44.259  -0.962 -31.871  0.00  0.00    +0.000 A 
ATOM     15  F   UNL     1     -45.245  -0.207 -31.332  0.00  0.00    +0.000 F 
ATOM     16  C   UNL     1     -44.160  -2.318 -31.545  0.00  0.00    +0.000 A 
ATOM     17  C   UNL     1     -43.144  -3.110 -32.101  0.00  0.00    +0.000 A 
ATOM     18  H   UNL     1     -40.576  -2.833 -34.143  0.00  0.00    +0.000 HD
ENDBRANCH   1   6
BRANCH   2  19
ATOM     19  C   UNL     1     -45.955  -5.336 -32.450  0.00  0.00    +0.000 A 
ATOM     20  C   UNL     1     -46.850  -4.283 -32.684  0.00  0.00    +0.000 A 
ATOM     21  C   UNL     1     -47.477  -4.173 -33.927  0.00  0.00    +0.000 A 
ATOM     22  N   UNL     1     -47.211  -5.078 -34.907  0.00  0.00    +0.000 NA
ATOM     23  C   UNL     1     -46.336  -6.100 -34.712  0.00  0.00    +0.000 A 
ATOM     24  C   UNL     1     -46.064  -7.064 -35.810  0.00  0.00    +0.000 C 
ATOM     25  C   UNL     1     -45.688  -6.242 -33.483  0.00  0.00    +0.000 A 
ENDBRANCH   2  19
BRANCH   4  26
ATOM     26  C   UNL     1     -45.035  -6.520 -27.793  0.00  0.00    +0.000 C 
ATOM     27  C   UNL     1     -45.244  -8.021 -27.811  0.00  0.00    +0.000 C 
ATOM     28  C   UNL     1     -46.220  -5.842 -27.134  0.00  0.00    +0.000 C 
ENDBRANCH   4  26
TORSDOF 3
ENDMDL
MODEL 2
REMARK VINA RESULT:      -6.6      3.070      5.257
REMARK  Name = ZINC000067641329 MCULE-5536280821 MolPort-016-591-893
REMARK  3 active torsions:
REMARK  status: ('A' for Active; 'I' for Inactive)
REMARK    1  A    between atoms: C_1  and  C_6
REMARK    2  A    between atoms: N_2  and  C_19
REMARK    3  A    between atoms: C_4  and  C_26
REMARK                            x       y       z     vdW  Elec       q    Type
REMARK                         _______ _______ _______ _____ _____    ______ ____
ROOT
ATOM      1  C   UNL     1     -46.472  -5.185 -28.917  0.00  0.00    +0.000 A 
ATOM      2  N   UNL     1     -45.651  -5.776 -28.016  0.00  0.00    +0.000 N 
ATOM      3  N   UNL     1     -46.007  -5.358 -26.815  0.00  0.00    +0.000 NA
ATOM      4  C   UNL     1     -47.040  -4.516 -27.008  0.00  0.00    +0.000 A 
ATOM      5  N   UNL     1     -47.366  -4.379 -28.310  0.00  0.00    +0.000 NA
ENDROOT
BRANCH   1   6
ATOM      6  C   UNL     1     -46.507  -5.461 -30.371  0.00  0.00    +0.000 A 
ATOM      7  C   UNL     1     -46.905  -6.728 -30.812  0.00  0.00    +0.000 A 
ATOM      8  C   UNL     1     -46.986  -7.001 -32.177  0.00  0.00    +0.000 A 
ATOM      9  O   UNL     1     -47.336  -8.144 -32.568  0.00  0.00    +0.000 OA
ATOM     10  N   UNL     1     -46.688  -6.036 -33.086  0.00  0.00    +0.000 N 
ATOM     11  C   UNL     1     -46.310  -4.789 -32.702  0.00  0.00    +0.000 A 
ATOM     12  C   UNL     1     -46.014  -3.825 -33.672  0.00  0.00    +0.000 A 
ATOM     13  C   UNL     1     -45.619  -2.542 -33.286  0.00  0.00    +0.000 A 
ATOM     14  C   UNL     1     -45.516  -2.216 -31.931  0.00  0.00    +0.000 A 
ATOM     15  F   UNL     1     -45.131  -0.972 -31.561  0.00  0.00    +0.000 F 
ATOM     16  C   UNL     1     -45.810  -3.174 -30.956  0.00  0.00    +0.000 A 
ATOM     17  C   UNL     1     -46.214  -4.466 -31.328  0.00  0.00    +0.000 A 
ATOM     18  H   UNL     1     -46.750  -6.246 -34.046  0.00  0.00    +0.000 HD
ENDBRANCH   1   6
BRANCH   2  19
ATOM     19  C   UNL     1     -44.517  -6.632 -28.243  0.00  0.00    +0.000 A 
ATOM     20  C   UNL     1     -43.265  -6.102 -28.582  0.00  0.00    +0.000 A 
ATOM     21  C   UNL     1     -42.176  -6.958 -28.756  0.00  0.00    +0.000 A 
ATOM     22  N   UNL     1     -42.330  -8.299 -28.586  0.00  0.00    +0.000 NA
ATOM     23  C   UNL     1     -43.530  -8.839 -28.241  0.00  0.00    +0.000 A 
ATOM     24  C   UNL     1     -43.656 -10.308 -28.055  0.00  0.00    +0.000 C 
ATOM     25  C   UNL     1     -44.641  -8.015 -28.058  0.00  0.00    +0.000 A 
ENDBRANCH   2  19
BRANCH   4  26
ATOM     26  C   UNL     1     -47.756  -3.805 -25.908  0.00  0.00    +0.000 C 
ATOM     27  C   UNL     1     -47.408  -2.329 -25.917  0.00  0.00    +0.000 C 
ATOM     28  C   UNL     1     -47.398  -4.410 -24.565  0.00  0.00    +0.000 C 
ENDBRANCH   4  26
TORSDOF 3
ENDMDL
MODEL 3
REMARK VINA RESULT:      -6.5     12.584     16.672
REMARK  Name = ZINC000067641329 MCULE-5536280821 MolPort-016-591-893
REMARK  3 active torsions:
REMARK  status: ('A' for Active; 'I' for Inactive)
REMARK    1  A    between atoms: C_1  and  C_6
REMARK    2  A    between atoms: N_2  and  C_19
REMARK    3  A    between atoms: C_4  and  C_26
REMARK                            x       y       z     vdW  Elec       q    Type
REMARK                         _______ _______ _______ _____ _____    ______ ____
ROOT
ATOM      1  C   UNL     1     -45.293 -17.213 -21.700  0.00  0.00    +0.000 A 
ATOM      2  N   UNL     1     -45.101 -15.896 -21.953  0.00  0.00    +0.000 N 
ATOM      3  N   UNL     1     -45.500 -15.221 -20.890  0.00  0.00    +0.000 NA
ATOM      4  C   UNL     1     -45.932 -16.143 -20.008  0.00  0.00    +0.000 A 
ATOM      5  N   UNL     1     -45.819 -17.405 -20.473  0.00  0.00    +0.000 NA
ENDROOT
BRANCH   1   6
ATOM      6  C   UNL     1     -44.873 -18.334 -22.570  0.00  0.00    +0.000 A 
ATOM      7  C   UNL     1     -45.573 -18.571 -23.758  0.00  0.00    +0.000 A 
ATOM      8  C   UNL     1     -45.173 -19.596 -24.615  0.00  0.00    +0.000 A 
ATOM      9  O   UNL     1     -45.811 -19.810 -25.677  0.00  0.00    +0.000 OA
ATOM     10  N   UNL     1     -44.094 -20.364 -24.306  0.00  0.00    +0.000 N 
ATOM     11  C   UNL     1     -43.379 -20.160 -23.169  0.00  0.00    +0.000 A 
ATOM     12  C   UNL     1     -42.275 -20.973 -22.891  0.00  0.00    +0.000 A 
ATOM     13  C   UNL     1     -41.537 -20.775 -21.722  0.00  0.00    +0.000 A 
ATOM     14  C   UNL     1     -41.898 -19.766 -20.826  0.00  0.00    +0.000 A 
ATOM     15  F   UNL     1     -41.180 -19.578 -19.692  0.00  0.00    +0.000 F 
ATOM     16  C   UNL     1     -43.000 -18.949 -21.096  0.00  0.00    +0.000 A 
ATOM     17  C   UNL     1     -43.748 -19.133 -22.270  0.00  0.00    +0.000 A 
ATOM     18  H   UNL     1     -43.826 -21.083 -24.921  0.00  0.00    +0.000 HD
ENDBRANCH   1   6
BRANCH   2  19
ATOM     19  C   UNL     1     -44.647 -15.259 -23.160  0.00  0.00    +0.000 A 
ATOM     20  C   UNL     1     -43.280 -15.118 -23.435  0.00  0.00    +0.000 A 
ATOM     21  C   UNL     1     -42.873 -14.529 -24.635  0.00  0.00    +0.000 A 
ATOM     22  N   UNL     1     -43.801 -14.106 -25.535  0.00  0.00    +0.000 NA
ATOM     23  C   UNL     1     -45.134 -14.245 -25.301  0.00  0.00    +0.000 A 
ATOM     24  C   UNL     1     -46.117 -13.778 -26.313  0.00  0.00    +0.000 C 
ATOM     25  C   UNL     1     -45.578 -14.829 -24.113  0.00  0.00    +0.000 A 
ENDBRANCH   2  19
BRANCH   4  26
ATOM     26  C   UNL     1     -46.477 -15.817 -18.658  0.00  0.00    +0.000 C 
ATOM     27  C   UNL     1     -47.729 -14.971 -18.782  0.00  0.00    +0.000 C 
ATOM     28  C   UNL     1     -45.439 -15.083 -17.831  0.00  0.00    +0.000 C 
ENDBRANCH   4  26
TORSDOF 3
ENDMDL
