MODEL 1
REMARK VINA RESULT:      -7.0      0.000      0.000
REMARK  Name = ZINC000008861088
REMARK  3 active torsions:
REMARK  status: ('A' for Active; 'I' for Inactive)
REMARK    1  A    between atoms: C_1  and  C_3
REMARK    2  A    between atoms: C_1  and  O_15
REMARK    3  A    between atoms: O_15  and  C_19
REMARK                            x       y       z     vdW  Elec       q    Type
REMARK                         _______ _______ _______ _____ _____    ______ ____
ROOT
ATOM      1  C   UNL     1     -46.753  -4.468 -33.138  0.00  0.00    +0.000 C 
ATOM      2  O   UNL     1     -47.702  -3.978 -33.804  0.00  0.00    +0.000 OA
ENDROOT
BRANCH   1   3
ATOM      3  C   UNL     1     -47.020  -5.050 -31.799  0.00  0.00    +0.000 A 
ATOM      4  C   UNL     1     -47.267  -4.178 -30.730  0.00  0.00    +0.000 A 
ATOM      5  C   UNL     1     -47.540  -4.684 -29.459  0.00  0.00    +0.000 A 
ATOM      6  O   UNL     1     -47.756  -3.895 -28.504  0.00  0.00    +0.000 OA
ATOM      7  N   UNL     1     -47.574  -6.026 -29.251  0.00  0.00    +0.000 N 
ATOM      8  C   UNL     1     -47.345  -6.909 -30.257  0.00  0.00    +0.000 A 
ATOM      9  C   UNL     1     -47.383  -8.282 -29.994  0.00  0.00    +0.000 A 
ATOM     10  C   UNL     1     -47.138  -9.199 -31.019  0.00  0.00    +0.000 A 
ATOM     11  C   UNL     1     -46.850  -8.749 -32.309  0.00  0.00    +0.000 A 
ATOM     12  C   UNL     1     -46.811  -7.378 -32.581  0.00  0.00    +0.000 A 
ATOM     13  C   UNL     1     -47.063  -6.443 -31.565  0.00  0.00    +0.000 A 
ATOM     14  H   UNL     1     -47.769  -6.366 -28.349  0.00  0.00    +0.000 HD
ENDBRANCH   1   3
BRANCH   1  15
ATOM     15  O   UNL     1     -45.452  -4.363 -33.653  0.00  0.00    +0.000 OA
BRANCH  15  19
ATOM     16  C   UNL     1     -40.738  -3.159 -33.166  0.00  0.00    +0.000 C 
ATOM     17  C   UNL     1     -42.172  -2.788 -33.005  0.00  0.00    +0.000 A 
ATOM     18  C   UNL     1     -43.149  -3.709 -33.393  0.00  0.00    +0.000 A 
ATOM     19  C   UNL     1     -44.505  -3.406 -33.266  0.00  0.00    +0.000 A 
ATOM     20  C   UNL     1     -44.883  -2.168 -32.722  0.00  0.00    +0.000 A 
ATOM     21  C   UNL     1     -43.918  -1.238 -32.331  0.00  0.00    +0.000 A 
ATOM     22  C   UNL     1     -44.373   0.065 -31.768  0.00  0.00    +0.000 C 
ATOM     23  C   UNL     1     -42.551  -1.542 -32.471  0.00  0.00    +0.000 A 
ATOM     24 CL   UNL     1     -41.324  -0.372 -31.980  0.00  0.00    +0.000 Cl
ENDBRANCH  15  19
ENDBRANCH   1  15
TORSDOF 3
ENDMDL
MODEL 2
REMARK VINA RESULT:      -6.9      3.686      7.066
REMARK  Name = ZINC000008861088
REMARK  3 active torsions:
REMARK  status: ('A' for Active; 'I' for Inactive)
REMARK    1  A    between atoms: C_1  and  C_3
REMARK    2  A    between atoms: C_1  and  O_15
REMARK    3  A    between atoms: O_15  and  C_19
REMARK                            x       y       z     vdW  Elec       q    Type
REMARK                         _______ _______ _______ _____ _____    ______ ____
ROOT
ATOM      1  C   UNL     1     -46.357  -4.300 -30.761  0.00  0.00    +0.000 C 
ATOM      2  O   UNL     1     -47.070  -5.011 -31.516  0.00  0.00    +0.000 OA
ENDROOT
BRANCH   1   3
ATOM      3  C   UNL     1     -44.905  -4.164 -31.038  0.00  0.00    +0.000 A 
ATOM      4  C   UNL     1     -44.078  -5.273 -30.819  0.00  0.00    +0.000 A 
ATOM      5  C   UNL     1     -42.711  -5.194 -31.084  0.00  0.00    +0.000 A 
ATOM      6  O   UNL     1     -41.974  -6.193 -30.882  0.00  0.00    +0.000 OA
ATOM      7  N   UNL     1     -42.174  -4.041 -31.560  0.00  0.00    +0.000 N 
ATOM      8  C   UNL     1     -42.936  -2.941 -31.790  0.00  0.00    +0.000 A 
ATOM      9  C   UNL     1     -42.338  -1.773 -32.273  0.00  0.00    +0.000 A 
ATOM     10  C   UNL     1     -43.111  -0.632 -32.503  0.00  0.00    +0.000 A 
ATOM     11  C   UNL     1     -44.483  -0.653 -32.248  0.00  0.00    +0.000 A 
ATOM     12  C   UNL     1     -45.090  -1.816 -31.765  0.00  0.00    +0.000 A 
ATOM     13  C   UNL     1     -44.329  -2.974 -31.537  0.00  0.00    +0.000 A 
ATOM     14  H   UNL     1     -41.207  -4.002 -31.742  0.00  0.00    +0.000 HD
ENDBRANCH   1   3
BRANCH   1  15
ATOM     15  O   UNL     1     -46.951  -3.731 -29.625  0.00  0.00    +0.000 OA
BRANCH  15  19
ATOM     16  C   UNL     1     -47.495  -3.043 -24.814  0.00  0.00    +0.000 C 
ATOM     17  C   UNL     1     -47.169  -3.961 -25.942  0.00  0.00    +0.000 A 
ATOM     18  C   UNL     1     -47.208  -3.458 -27.246  0.00  0.00    +0.000 A 
ATOM     19  C   UNL     1     -46.915  -4.279 -28.336  0.00  0.00    +0.000 A 
ATOM     20  C   UNL     1     -46.560  -5.617 -28.109  0.00  0.00    +0.000 A 
ATOM     21  C   UNL     1     -46.519  -6.134 -26.813  0.00  0.00    +0.000 A 
ATOM     22  C   UNL     1     -46.145  -7.565 -26.629  0.00  0.00    +0.000 C 
ATOM     23  C   UNL     1     -46.826  -5.307 -25.716  0.00  0.00    +0.000 A 
ATOM     24 CL   UNL     1     -46.777  -5.951 -24.074  0.00  0.00    +0.000 Cl
ENDBRANCH  15  19
ENDBRANCH   1  15
TORSDOF 3
ENDMDL
MODEL 3
REMARK VINA RESULT:      -6.6     12.976     15.266
REMARK  Name = ZINC000008861088
REMARK  3 active torsions:
REMARK  status: ('A' for Active; 'I' for Inactive)
REMARK    1  A    between atoms: C_1  and  C_3
REMARK    2  A    between atoms: C_1  and  O_15
REMARK    3  A    between atoms: O_15  and  C_19
REMARK                            x       y       z     vdW  Elec       q    Type
REMARK                         _______ _______ _______ _____ _____    ______ ____
ROOT
ATOM      1  C   UNL     1     -45.787 -15.108 -24.729  0.00  0.00    +0.000 C 
ATOM      2  O   UNL     1     -47.023 -14.952 -24.912  0.00  0.00    +0.000 OA
ENDROOT
BRANCH   1   3
ATOM      3  C   UNL     1     -45.003 -15.932 -25.683  0.00  0.00    +0.000 A 
ATOM      4  C   UNL     1     -44.279 -15.279 -26.689  0.00  0.00    +0.000 A 
ATOM      5  C   UNL     1     -43.515 -16.014 -27.595  0.00  0.00    +0.000 A 
ATOM      6  O   UNL     1     -42.870 -15.420 -28.498  0.00  0.00    +0.000 OA
ATOM      7  N   UNL     1     -43.465 -17.369 -27.505  0.00  0.00    +0.000 N 
ATOM      8  C   UNL     1     -44.147 -18.045 -26.545  0.00  0.00    +0.000 A 
ATOM      9  C   UNL     1     -44.072 -19.440 -26.496  0.00  0.00    +0.000 A 
ATOM     10  C   UNL     1     -44.779 -20.146 -25.520  0.00  0.00    +0.000 A 
ATOM     11  C   UNL     1     -45.567 -19.462 -24.592  0.00  0.00    +0.000 A 
ATOM     12  C   UNL     1     -45.648 -18.067 -24.634  0.00  0.00    +0.000 A 
ATOM     13  C   UNL     1     -44.936 -17.341 -25.602  0.00  0.00    +0.000 A 
ATOM     14  H   UNL     1     -42.921 -17.872 -28.152  0.00  0.00    +0.000 HD
ENDBRANCH   1   3
BRANCH   1  15
ATOM     15  O   UNL     1     -45.211 -14.567 -23.571  0.00  0.00    +0.000 OA
BRANCH  15  19
ATOM     16  C   UNL     1     -45.733 -17.573 -19.749  0.00  0.00    +0.000 C 
ATOM     17  C   UNL     1     -45.969 -16.234 -20.360  0.00  0.00    +0.000 A 
ATOM     18  C   UNL     1     -45.496 -15.997 -21.654  0.00  0.00    +0.000 A 
ATOM     19  C   UNL     1     -45.688 -14.758 -22.267  0.00  0.00    +0.000 A 
ATOM     20  C   UNL     1     -46.382 -13.752 -21.577  0.00  0.00    +0.000 A 
ATOM     21  C   UNL     1     -46.859 -13.974 -20.284  0.00  0.00    +0.000 A 
ATOM     22  C   UNL     1     -47.581 -12.870 -19.593  0.00  0.00    +0.000 C 
ATOM     23  C   UNL     1     -46.654 -15.221 -19.664  0.00  0.00    +0.000 A 
ATOM     24 CL   UNL     1     -47.253 -15.511 -18.029  0.00  0.00    +0.000 Cl
ENDBRANCH  15  19
ENDBRANCH   1  15
TORSDOF 3
ENDMDL
