MODEL 1
REMARK VINA RESULT:      -6.5      0.000      0.000
REMARK  Name = ZINC000032760773
REMARK  3 active torsions:
REMARK  status: ('A' for Active; 'I' for Inactive)
REMARK    1  A    between atoms: N_2  and  C_17
REMARK    2  A    between atoms: C_3  and  C_5
REMARK    3  A    between atoms: C_17  and  C_18
REMARK                            x       y       z     vdW  Elec       q    Type
REMARK                         _______ _______ _______ _____ _____    ______ ____
ROOT
ATOM      1  C   UNL     1     -40.997 -20.975 -21.146  0.00  0.00    +0.000 C 
ATOM      2  N   UNL     1     -41.773 -20.249 -22.144  0.00  0.00    +0.000 N 
ATOM      3  C   UNL     1     -42.431 -20.980 -23.196  0.00  0.00    +0.000 C 
ATOM      4  O   UNL     1     -42.439 -22.242 -23.159  0.00  0.00    +0.000 OA
ENDROOT
BRANCH   3   5
ATOM      5  C   UNL     1     -43.084 -20.291 -24.338  0.00  0.00    +0.000 A 
ATOM      6  C   UNL     1     -44.470 -20.093 -24.306  0.00  0.00    +0.000 A 
ATOM      7  C   UNL     1     -45.112 -19.422 -25.345  0.00  0.00    +0.000 A 
ATOM      8  O   UNL     1     -46.358 -19.254 -25.308  0.00  0.00    +0.000 OA
ATOM      9  N   UNL     1     -44.396 -18.950 -26.397  0.00  0.00    +0.000 N 
ATOM     10  C   UNL     1     -43.050 -19.113 -26.473  0.00  0.00    +0.000 A 
ATOM     11  C   UNL     1     -42.353 -18.613 -27.579  0.00  0.00    +0.000 A 
ATOM     12  C   UNL     1     -40.970 -18.785 -27.673  0.00  0.00    +0.000 A 
ATOM     13  C   UNL     1     -40.277 -19.457 -26.663  0.00  0.00    +0.000 A 
ATOM     14  C   UNL     1     -40.965 -19.958 -25.555  0.00  0.00    +0.000 A 
ATOM     15  C   UNL     1     -42.354 -19.789 -25.440  0.00  0.00    +0.000 A 
ATOM     16  H   UNL     1     -44.864 -18.476 -27.123  0.00  0.00    +0.000 HD
ENDBRANCH   3   5
BRANCH   2  17
ATOM     17  C   UNL     1     -42.087 -18.845 -21.892  0.00  0.00    +0.000 C 
BRANCH  17  18
ATOM     18  C   UNL     1     -43.410 -18.704 -21.214  0.00  0.00    +0.000 A 
ATOM     19  C   UNL     1     -44.370 -17.818 -21.715  0.00  0.00    +0.000 A 
ATOM     20  C   UNL     1     -45.601 -17.678 -21.069  0.00  0.00    +0.000 A 
ATOM     21  C   UNL     1     -45.876 -18.423 -19.918  0.00  0.00    +0.000 A 
ATOM     22  F   UNL     1     -47.071 -18.284 -19.295  0.00  0.00    +0.000 F 
ATOM     23  C   UNL     1     -44.915 -19.307 -19.412  0.00  0.00    +0.000 A 
ATOM     24  F   UNL     1     -45.174 -20.031 -18.295  0.00  0.00    +0.000 F 
ATOM     25  C   UNL     1     -43.684 -19.446 -20.059  0.00  0.00    +0.000 A 
ENDBRANCH  17  18
ENDBRANCH   2  17
TORSDOF 3
ENDMDL
MODEL 2
REMARK VINA RESULT:      -6.4     15.578     17.504
REMARK  Name = ZINC000032760773
REMARK  3 active torsions:
REMARK  status: ('A' for Active; 'I' for Inactive)
REMARK    1  A    between atoms: N_2  and  C_17
REMARK    2  A    between atoms: C_3  and  C_5
REMARK    3  A    between atoms: C_17  and  C_18
REMARK                            x       y       z     vdW  Elec       q    Type
REMARK                         _______ _______ _______ _____ _____    ______ ____
ROOT
ATOM      1  C   UNL     1     -46.372  -7.441 -31.822  0.00  0.00    +0.000 C 
ATOM      2  N   UNL     1     -45.345  -6.420 -31.989  0.00  0.00    +0.000 N 
ATOM      3  C   UNL     1     -45.468  -5.463 -33.058  0.00  0.00    +0.000 C 
ATOM      4  O   UNL     1     -46.527  -5.438 -33.744  0.00  0.00    +0.000 OA
ENDROOT
BRANCH   3   5
ATOM      5  C   UNL     1     -44.373  -4.516 -33.391  0.00  0.00    +0.000 A 
ATOM      6  C   UNL     1     -43.335  -4.949 -34.224  0.00  0.00    +0.000 A 
ATOM      7  C   UNL     1     -42.308  -4.078 -34.583  0.00  0.00    +0.000 A 
ATOM      8  O   UNL     1     -41.377  -4.479 -35.329  0.00  0.00    +0.000 OA
ATOM      9  N   UNL     1     -42.309  -2.798 -34.131  0.00  0.00    +0.000 N 
ATOM     10  C   UNL     1     -43.296  -2.329 -33.324  0.00  0.00    +0.000 A 
ATOM     11  C   UNL     1     -43.254  -1.004 -32.878  0.00  0.00    +0.000 A 
ATOM     12  C   UNL     1     -44.258  -0.514 -32.039  0.00  0.00    +0.000 A 
ATOM     13  C   UNL     1     -45.307  -1.346 -31.641  0.00  0.00    +0.000 A 
ATOM     14  C   UNL     1     -45.357  -2.671 -32.083  0.00  0.00    +0.000 A 
ATOM     15  C   UNL     1     -44.361  -3.178 -32.933  0.00  0.00    +0.000 A 
ATOM     16  H   UNL     1     -41.577  -2.194 -34.394  0.00  0.00    +0.000 HD
ENDBRANCH   3   5
BRANCH   2  17
ATOM     17  C   UNL     1     -44.377  -6.228 -30.913  0.00  0.00    +0.000 C 
BRANCH  17  18
ATOM     18  C   UNL     1     -45.064  -5.991 -29.608  0.00  0.00    +0.000 A 
ATOM     19  C   UNL     1     -44.692  -6.718 -28.472  0.00  0.00    +0.000 A 
ATOM     20  C   UNL     1     -45.347  -6.503 -27.256  0.00  0.00    +0.000 A 
ATOM     21  C   UNL     1     -46.378  -5.563 -27.174  0.00  0.00    +0.000 A 
ATOM     22  F   UNL     1     -47.011  -5.358 -25.993  0.00  0.00    +0.000 F 
ATOM     23  C   UNL     1     -46.755  -4.837 -28.311  0.00  0.00    +0.000 A 
ATOM     24  F   UNL     1     -47.756  -3.925 -28.239  0.00  0.00    +0.000 F 
ATOM     25  C   UNL     1     -46.099  -5.053 -29.526  0.00  0.00    +0.000 A 
ENDBRANCH  17  18
ENDBRANCH   2  17
TORSDOF 3
ENDMDL
MODEL 3
REMARK VINA RESULT:      -6.4      3.055      4.215
REMARK  Name = ZINC000032760773
REMARK  3 active torsions:
REMARK  status: ('A' for Active; 'I' for Inactive)
REMARK    1  A    between atoms: N_2  and  C_17
REMARK    2  A    between atoms: C_3  and  C_5
REMARK    3  A    between atoms: C_17  and  C_18
REMARK                            x       y       z     vdW  Elec       q    Type
REMARK                         _______ _______ _______ _____ _____    ______ ____
ROOT
ATOM      1  C   UNL     1     -42.467 -18.642 -19.444  0.00  0.00    +0.000 C 
ATOM      2  N   UNL     1     -43.505 -18.543 -20.462  0.00  0.00    +0.000 N 
ATOM      3  C   UNL     1     -43.128 -18.423 -21.847  0.00  0.00    +0.000 C 
ATOM      4  O   UNL     1     -41.913 -18.544 -22.167  0.00  0.00    +0.000 OA
ENDROOT
BRANCH   3   5
ATOM      5  C   UNL     1     -44.126 -18.139 -22.909  0.00  0.00    +0.000 A 
ATOM      6  C   UNL     1     -44.573 -19.193 -23.716  0.00  0.00    +0.000 A 
ATOM      7  C   UNL     1     -45.533 -18.970 -24.701  0.00  0.00    +0.000 A 
ATOM      8  O   UNL     1     -45.924 -19.923 -25.423  0.00  0.00    +0.000 OA
ATOM      9  N   UNL     1     -46.048 -17.727 -24.883  0.00  0.00    +0.000 N 
ATOM     10  C   UNL     1     -45.650 -16.673 -24.124  0.00  0.00    +0.000 A 
ATOM     11  C   UNL     1     -46.204 -15.409 -24.350  0.00  0.00    +0.000 A 
ATOM     12  C   UNL     1     -45.794 -14.316 -23.583  0.00  0.00    +0.000 A 
ATOM     13  C   UNL     1     -44.829 -14.481 -22.587  0.00  0.00    +0.000 A 
ATOM     14  C   UNL     1     -44.272 -15.741 -22.353  0.00  0.00    +0.000 A 
ATOM     15  C   UNL     1     -44.676 -16.852 -23.111  0.00  0.00    +0.000 A 
ATOM     16  H   UNL     1     -46.726 -17.585 -25.583  0.00  0.00    +0.000 HD
ENDBRANCH   3   5
BRANCH   2  17
ATOM     17  C   UNL     1     -44.883 -18.843 -20.080  0.00  0.00    +0.000 C 
BRANCH  17  18
ATOM     18  C   UNL     1     -45.532 -17.661 -19.438  0.00  0.00    +0.000 A 
ATOM     19  C   UNL     1     -46.919 -17.630 -19.254  0.00  0.00    +0.000 A 
ATOM     20  C   UNL     1     -47.523 -16.516 -18.666  0.00  0.00    +0.000 A 
ATOM     21  C   UNL     1     -46.743 -15.427 -18.264  0.00  0.00    +0.000 A 
ATOM     22  F   UNL     1     -47.335 -14.349 -17.694  0.00  0.00    +0.000 F 
ATOM     23  C   UNL     1     -45.356 -15.454 -18.451  0.00  0.00    +0.000 A 
ATOM     24  F   UNL     1     -44.593 -14.402 -18.065  0.00  0.00    +0.000 F 
ATOM     25  C   UNL     1     -44.752 -16.570 -19.039  0.00  0.00    +0.000 A 
ENDBRANCH  17  18
ENDBRANCH   2  17
TORSDOF 3
ENDMDL
