MODEL 1
REMARK VINA RESULT:      -6.1      0.000      0.000
REMARK  Name = ZINC000096114852
REMARK  11 active torsions:
REMARK  status: ('A' for Active; 'I' for Inactive)
REMARK    1  A    between atoms: C_1  and  C_28
REMARK    2  A    between atoms: C_2  and  O_3
REMARK    3  A    between atoms: C_5  and  O_6
REMARK    4  A    between atoms: C_10  and  O_11
REMARK    5  A    between atoms: C_12  and  C_18
REMARK    6  A    between atoms: C_21  and  O_22
REMARK    7  A    between atoms: C_23  and  O_24
REMARK    8  A    between atoms: C_28  and  C_29
REMARK    9  A    between atoms: C_28  and  C_36
REMARK   10  A    between atoms: C_36  and  C_37
REMARK   11  A    between atoms: C_37  and  O_40
REMARK                            x       y       z     vdW  Elec       q    Type
REMARK                         _______ _______ _______ _____ _____    ______ ____
ROOT
ATOM      1  C   UNL     1     -46.112  -5.607 -30.208  0.00  0.00    +0.000 A 
ATOM      2  C   UNL     1     -46.340  -4.474 -31.006  0.00  0.00    +0.000 A 
ATOM      3  C   UNL     1     -46.573  -4.608 -32.373  0.00  0.00    +0.000 A 
ATOM      4  C   UNL     1     -46.587  -5.864 -32.976  0.00  0.00    +0.000 A 
ATOM      5  C   UNL     1     -46.376  -7.022 -32.196  0.00  0.00    +0.000 A 
ATOM      6  C   UNL     1     -46.402  -8.324 -32.738  0.00  0.00    +0.000 A 
ATOM      7  O   UNL     1     -46.612  -8.515 -33.967  0.00  0.00    +0.000 OA
ATOM      8  C   UNL     1     -46.206  -9.427 -31.901  0.00  0.00    +0.000 A 
ATOM      9  C   UNL     1     -45.985  -9.215 -30.525  0.00  0.00    +0.000 A 
ATOM     10  O   UNL     1     -45.969  -7.971 -30.054  0.00  0.00    +0.000 OA
ATOM     11  C   UNL     1     -46.143  -6.888 -30.805  0.00  0.00    +0.000 A 
ENDROOT
BRANCH   9  12
ATOM     12  C   UNL     1     -45.775 -10.323 -29.557  0.00  0.00    +0.000 A 
ATOM     13  C   UNL     1     -44.465 -10.661 -29.182  0.00  0.00    +0.000 A 
ATOM     14  C   UNL     1     -44.226 -11.713 -28.292  0.00  0.00    +0.000 A 
ATOM     15  C   UNL     1     -45.294 -12.444 -27.769  0.00  0.00    +0.000 A 
ATOM     16  C   UNL     1     -46.606 -12.123 -28.138  0.00  0.00    +0.000 A 
ATOM     17  C   UNL     1     -46.840 -11.070 -29.028  0.00  0.00    +0.000 A 
BRANCH  15  18
ATOM     18  O   UNL     1     -45.047 -13.491 -26.890  0.00  0.00    +0.000 OA
ATOM     19  H   UNL     1     -45.459 -14.322 -27.023  0.00  0.00    +0.000 HD
ENDBRANCH  15  18
BRANCH  16  20
ATOM     20  O   UNL     1     -47.676 -12.848 -27.633  0.00  0.00    +0.000 OA
ATOM     21  H   UNL     1     -48.199 -12.492 -26.941  0.00  0.00    +0.000 HD
ENDBRANCH  16  20
ENDBRANCH   9  12
BRANCH   8  22
ATOM     22  O   UNL     1     -46.255 -10.709 -32.442  0.00  0.00    +0.000 OA
ATOM     23  H   UNL     1     -46.778 -10.879 -33.200  0.00  0.00    +0.000 HD
ENDBRANCH   8  22
BRANCH   4  24
ATOM     24  O   UNL     1     -46.817  -5.937 -34.346  0.00  0.00    +0.000 OA
ATOM     25  H   UNL     1     -47.384  -5.316 -34.759  0.00  0.00    +0.000 HD
ENDBRANCH   4  24
BRANCH   2  26
ATOM     26  O   UNL     1     -46.330  -3.201 -30.447  0.00  0.00    +0.000 OA
ATOM     27  H   UNL     1     -46.734  -3.051 -29.615  0.00  0.00    +0.000 HD
ENDBRANCH   2  26
BRANCH   1  28
ATOM     28  C   UNL     1     -45.833  -5.399 -28.739  0.00  0.00    +0.000 C 
BRANCH  28  29
ATOM     29  C   UNL     1     -44.614  -6.118 -28.232  0.00  0.00    +0.000 A 
ATOM     30  C   UNL     1     -44.762  -6.947 -27.114  0.00  0.00    +0.000 A 
ATOM     31  C   UNL     1     -43.669  -7.641 -26.591  0.00  0.00    +0.000 A 
ATOM     32  C   UNL     1     -42.413  -7.512 -27.187  0.00  0.00    +0.000 A 
ATOM     33  C   UNL     1     -42.251  -6.685 -28.301  0.00  0.00    +0.000 A 
ATOM     34  C   UNL     1     -43.342  -5.986 -28.825  0.00  0.00    +0.000 A 
ATOM     35  F   UNL     1     -43.155  -5.208 -29.918  0.00  0.00    +0.000 F 
ENDBRANCH  28  29
BRANCH  28  36
ATOM     36  C   UNL     1     -47.052  -5.461 -27.820  0.00  0.00    +0.000 C 
BRANCH  36  37
ATOM     37  C   UNL     1     -47.198  -4.180 -27.064  0.00  0.00    +0.000 C 
ATOM     38  O   UNL     1     -47.425  -3.116 -27.699  0.00  0.00    +0.000 OA
BRANCH  37  40
ATOM     39  C   UNL     1     -47.307  -5.254 -24.841  0.00  0.00    +0.000 C 
ATOM     40  O   UNL     1     -47.067  -4.130 -25.674  0.00  0.00    +0.000 OA
ENDBRANCH  37  40
ENDBRANCH  36  37
ENDBRANCH  28  36
ENDBRANCH   1  28
TORSDOF 11
ENDMDL
MODEL 2
REMARK VINA RESULT:      -6.0      2.479      5.530
REMARK  Name = ZINC000096114852
REMARK  11 active torsions:
REMARK  status: ('A' for Active; 'I' for Inactive)
REMARK    1  A    between atoms: C_1  and  C_28
REMARK    2  A    between atoms: C_2  and  O_3
REMARK    3  A    between atoms: C_5  and  O_6
REMARK    4  A    between atoms: C_10  and  O_11
REMARK    5  A    between atoms: C_12  and  C_18
REMARK    6  A    between atoms: C_21  and  O_22
REMARK    7  A    between atoms: C_23  and  O_24
REMARK    8  A    between atoms: C_28  and  C_29
REMARK    9  A    between atoms: C_28  and  C_36
REMARK   10  A    between atoms: C_36  and  C_37
REMARK   11  A    between atoms: C_37  and  O_40
REMARK                            x       y       z     vdW  Elec       q    Type
REMARK                         _______ _______ _______ _____ _____    ______ ____
ROOT
ATOM      1  C   UNL     1     -46.145  -5.052 -31.172  0.00  0.00    +0.000 A 
ATOM      2  C   UNL     1     -46.605  -3.981 -30.388  0.00  0.00    +0.000 A 
ATOM      3  C   UNL     1     -47.006  -4.191 -29.070  0.00  0.00    +0.000 A 
ATOM      4  C   UNL     1     -46.956  -5.462 -28.503  0.00  0.00    +0.000 A 
ATOM      5  C   UNL     1     -46.483  -6.555 -29.261  0.00  0.00    +0.000 A 
ATOM      6  C   UNL     1     -46.383  -7.862 -28.740  0.00  0.00    +0.000 A 
ATOM      7  O   UNL     1     -46.725  -8.118 -27.553  0.00  0.00    +0.000 OA
ATOM      8  C   UNL     1     -45.884  -8.892 -29.542  0.00  0.00    +0.000 A 
ATOM      9  C   UNL     1     -45.489  -8.603 -30.865  0.00  0.00    +0.000 A 
ATOM     10  O   UNL     1     -45.600  -7.357 -31.318  0.00  0.00    +0.000 OA
ATOM     11  C   UNL     1     -46.072  -6.343 -30.601  0.00  0.00    +0.000 A 
ENDROOT
BRANCH   9  12
ATOM     12  C   UNL     1     -44.942  -9.629 -31.790  0.00  0.00    +0.000 A 
ATOM     13  C   UNL     1     -43.573  -9.604 -32.103  0.00  0.00    +0.000 A 
ATOM     14  C   UNL     1     -43.026 -10.539 -32.987  0.00  0.00    +0.000 A 
ATOM     15  C   UNL     1     -43.842 -11.508 -33.576  0.00  0.00    +0.000 A 
ATOM     16  C   UNL     1     -45.209 -11.542 -33.278  0.00  0.00    +0.000 A 
ATOM     17  C   UNL     1     -45.752 -10.606 -32.392  0.00  0.00    +0.000 A 
BRANCH  15  18
ATOM     18  O   UNL     1     -43.291 -12.428 -34.458  0.00  0.00    +0.000 OA
ATOM     19  H   UNL     1     -43.848 -12.939 -35.011  0.00  0.00    +0.000 HD
ENDBRANCH  15  18
BRANCH  16  20
ATOM     20  O   UNL     1     -46.033 -12.494 -33.863  0.00  0.00    +0.000 OA
ATOM     21  H   UNL     1     -46.842 -12.730 -33.452  0.00  0.00    +0.000 HD
ENDBRANCH  16  20
ENDBRANCH   9  12
BRANCH   8  22
ATOM     22  O   UNL     1     -45.770 -10.174 -29.012  0.00  0.00    +0.000 OA
ATOM     23  H   UNL     1     -46.540 -10.658 -28.786  0.00  0.00    +0.000 HD
ENDBRANCH   8  22
BRANCH   4  24
ATOM     24  O   UNL     1     -47.375  -5.614 -27.185  0.00  0.00    +0.000 OA
ATOM     25  H   UNL     1     -48.229  -5.324 -26.929  0.00  0.00    +0.000 HD
ENDBRANCH   4  24
BRANCH   2  26
ATOM     26  O   UNL     1     -46.677  -2.697 -30.917  0.00  0.00    +0.000 OA
ATOM     27  H   UNL     1     -46.568  -2.562 -31.838  0.00  0.00    +0.000 HD
ENDBRANCH   2  26
BRANCH   1  28
ATOM     28  C   UNL     1     -45.755  -4.771 -32.603  0.00  0.00    +0.000 C 
BRANCH  28  29
ATOM     29  C   UNL     1     -44.679  -3.732 -32.759  0.00  0.00    +0.000 A 
ATOM     30  C   UNL     1     -44.979  -2.588 -33.509  0.00  0.00    +0.000 A 
ATOM     31  C   UNL     1     -44.023  -1.587 -33.694  0.00  0.00    +0.000 A 
ATOM     32  C   UNL     1     -42.754  -1.723 -33.128  0.00  0.00    +0.000 A 
ATOM     33  C   UNL     1     -42.441  -2.861 -32.381  0.00  0.00    +0.000 A 
ATOM     34  C   UNL     1     -43.394  -3.866 -32.195  0.00  0.00    +0.000 A 
ATOM     35  F   UNL     1     -43.065  -4.947 -31.449  0.00  0.00    +0.000 F 
ENDBRANCH  28  29
BRANCH  28  36
ATOM     36  C   UNL     1     -46.913  -4.658 -33.592  0.00  0.00    +0.000 C 
BRANCH  36  37
ATOM     37  C   UNL     1     -46.686  -5.560 -34.763  0.00  0.00    +0.000 C 
ATOM     38  O   UNL     1     -47.410  -5.432 -35.785  0.00  0.00    +0.000 OA
BRANCH  37  40
ATOM     39  C   UNL     1     -46.006  -7.929 -34.942  0.00  0.00    +0.000 C 
ATOM     40  O   UNL     1     -45.706  -6.556 -34.742  0.00  0.00    +0.000 OA
ENDBRANCH  37  40
ENDBRANCH  36  37
ENDBRANCH  28  36
ENDBRANCH   1  28
TORSDOF 11
ENDMDL
MODEL 3
REMARK VINA RESULT:      -6.0      9.320     13.356
REMARK  Name = ZINC000096114852
REMARK  11 active torsions:
REMARK  status: ('A' for Active; 'I' for Inactive)
REMARK    1  A    between atoms: C_1  and  C_28
REMARK    2  A    between atoms: C_2  and  O_3
REMARK    3  A    between atoms: C_5  and  O_6
REMARK    4  A    between atoms: C_10  and  O_11
REMARK    5  A    between atoms: C_12  and  C_18
REMARK    6  A    between atoms: C_21  and  O_22
REMARK    7  A    between atoms: C_23  and  O_24
REMARK    8  A    between atoms: C_28  and  C_29
REMARK    9  A    between atoms: C_28  and  C_36
REMARK   10  A    between atoms: C_36  and  C_37
REMARK   11  A    between atoms: C_37  and  O_40
REMARK                            x       y       z     vdW  Elec       q    Type
REMARK                         _______ _______ _______ _____ _____    ______ ____
ROOT
ATOM      1  C   UNL     1     -44.659 -17.509 -21.312  0.00  0.00    +0.000 A 
ATOM      2  C   UNL     1     -44.442 -18.744 -21.945  0.00  0.00    +0.000 A 
ATOM      3  C   UNL     1     -44.668 -18.886 -23.312  0.00  0.00    +0.000 A 
ATOM      4  C   UNL     1     -45.108 -17.810 -24.079  0.00  0.00    +0.000 A 
ATOM      5  C   UNL     1     -45.320 -16.552 -23.473  0.00  0.00    +0.000 A 
ATOM      6  C   UNL     1     -45.741 -15.417 -24.196  0.00  0.00    +0.000 A 
ATOM      7  O   UNL     1     -45.959 -15.476 -25.437  0.00  0.00    +0.000 OA
ATOM      8  C   UNL     1     -45.909 -14.197 -23.533  0.00  0.00    +0.000 A 
ATOM      9  C   UNL     1     -45.654 -14.125 -22.148  0.00  0.00    +0.000 A 
ATOM     10  O   UNL     1     -45.257 -15.220 -21.504  0.00  0.00    +0.000 OA
ATOM     11  C   UNL     1     -45.088 -16.404 -22.083  0.00  0.00    +0.000 A 
ENDROOT
BRANCH   9  12
ATOM     12  C   UNL     1     -45.797 -12.874 -21.360  0.00  0.00    +0.000 A 
ATOM     13  C   UNL     1     -46.877 -12.747 -20.472  0.00  0.00    +0.000 A 
ATOM     14  C   UNL     1     -47.058 -11.576 -19.731  0.00  0.00    +0.000 A 
ATOM     15  C   UNL     1     -46.164 -10.512 -19.872  0.00  0.00    +0.000 A 
ATOM     16  C   UNL     1     -45.086 -10.621 -20.758  0.00  0.00    +0.000 A 
ATOM     17  C   UNL     1     -44.908 -11.796 -21.496  0.00  0.00    +0.000 A 
BRANCH  15  18
ATOM     18  O   UNL     1     -46.355  -9.350 -19.136  0.00  0.00    +0.000 OA
ATOM     19  H   UNL     1     -46.424  -9.392 -18.202  0.00  0.00    +0.000 HD
ENDBRANCH  15  18
BRANCH  16  20
ATOM     20  O   UNL     1     -44.195  -9.568 -20.914  0.00  0.00    +0.000 OA
ATOM     21  H   UNL     1     -43.495  -9.635 -21.535  0.00  0.00    +0.000 HD
ENDBRANCH  16  20
ENDBRANCH   9  12
BRANCH   8  22
ATOM     22  O   UNL     1     -46.305 -13.076 -24.259  0.00  0.00    +0.000 OA
ATOM     23  H   UNL     1     -45.977 -12.229 -24.030  0.00  0.00    +0.000 HD
ENDBRANCH   8  22
BRANCH   4  24
ATOM     24  O   UNL     1     -45.324 -18.011 -25.438  0.00  0.00    +0.000 OA
ATOM     25  H   UNL     1     -45.749 -17.349 -25.948  0.00  0.00    +0.000 HD
ENDBRANCH   4  24
BRANCH   2  26
ATOM     26  O   UNL     1     -44.007 -19.846 -21.216  0.00  0.00    +0.000 OA
ATOM     27  H   UNL     1     -43.213 -19.796 -20.721  0.00  0.00    +0.000 HD
ENDBRANCH   2  26
BRANCH   1  28
ATOM     28  C   UNL     1     -44.429 -17.422 -19.822  0.00  0.00    +0.000 C 
BRANCH  28  29
ATOM     29  C   UNL     1     -45.482 -16.649 -19.077  0.00  0.00    +0.000 A 
ATOM     30  C   UNL     1     -45.089 -15.477 -18.420  0.00  0.00    +0.000 A 
ATOM     31  C   UNL     1     -46.017 -14.714 -17.708  0.00  0.00    +0.000 A 
ATOM     32  C   UNL     1     -47.352 -15.119 -17.649  0.00  0.00    +0.000 A 
ATOM     33  C   UNL     1     -47.756 -16.288 -18.298  0.00  0.00    +0.000 A 
ATOM     34  C   UNL     1     -46.830 -17.056 -19.009  0.00  0.00    +0.000 A 
ATOM     35  F   UNL     1     -47.259 -18.173 -19.643  0.00  0.00    +0.000 F 
ENDBRANCH  28  29
BRANCH  28  36
ATOM     36  C   UNL     1     -42.991 -17.141 -19.391  0.00  0.00    +0.000 C 
BRANCH  36  37
ATOM     37  C   UNL     1     -42.538 -18.163 -18.399  0.00  0.00    +0.000 C 
ATOM     38  O   UNL     1     -42.724 -19.384 -18.648  0.00  0.00    +0.000 OA
BRANCH  37  40
ATOM     39  C   UNL     1     -41.080 -18.671 -16.468  0.00  0.00    +0.000 C 
ATOM     40  O   UNL     1     -41.934 -17.798 -17.193  0.00  0.00    +0.000 OA
ENDBRANCH  37  40
ENDBRANCH  36  37
ENDBRANCH  28  36
ENDBRANCH   1  28
TORSDOF 11
ENDMDL
