MODEL 1
REMARK VINA RESULT:      -7.2      0.000      0.000
REMARK  Name = ZINC000016045159 CSC026732198 MCULE-2825595349 MolPort-005-315-093
REMARK  5 active torsions:
REMARK  status: ('A' for Active; 'I' for Inactive)
REMARK    1  A    between atoms: C_1  and  C_14
REMARK    2  A    between atoms: C_6  and  S_26
REMARK    3  A    between atoms: N_13  and  C_19
REMARK    4  A    between atoms: C_17  and  C_24
REMARK    5  A    between atoms: S_26  and  N_29
REMARK                            x       y       z     vdW  Elec       q    Type
REMARK                         _______ _______ _______ _____ _____    ______ ____
ROOT
ATOM      1  C   UNL     1     -45.016 -19.023 -20.037  0.00  0.00    +0.000 A 
ATOM      2  C   UNL     1     -44.386 -19.097 -21.300  0.00  0.00    +0.000 A 
ATOM      3  C   UNL     1     -43.028 -19.492 -21.367  0.00  0.00    +0.000 A 
ATOM      4  C   UNL     1     -42.379 -19.566 -22.602  0.00  0.00    +0.000 A 
ATOM      5  C   UNL     1     -43.066 -19.244 -23.775  0.00  0.00    +0.000 A 
ATOM      6  C   UNL     1     -44.403 -18.842 -23.719  0.00  0.00    +0.000 A 
ATOM      7  C   UNL     1     -45.059 -18.770 -22.486  0.00  0.00    +0.000 A 
ATOM      8  N   UNL     1     -42.349 -19.798 -20.230  0.00  0.00    +0.000 N 
ATOM      9  C   UNL     1     -42.940 -19.736 -19.009  0.00  0.00    +0.000 A 
ATOM     10  O   UNL     1     -42.280 -20.027 -17.977  0.00  0.00    +0.000 OA
ATOM     11  C   UNL     1     -44.276 -19.353 -18.895  0.00  0.00    +0.000 A 
ATOM     12  H   UNL     1     -41.405 -20.070 -20.294  0.00  0.00    +0.000 HD
ENDROOT
BRANCH   1  14
ATOM     13  N   UNL     1     -46.830 -17.396 -19.287  0.00  0.00    +0.000 N 
ATOM     14  C   UNL     1     -46.441 -18.645 -19.876  0.00  0.00    +0.000 C 
ATOM     15  O   UNL     1     -47.342 -19.463 -20.198  0.00  0.00    +0.000 OA
ATOM     16  H   UNL     1     -47.668 -17.388 -18.771  0.00  0.00    +0.000 HD
BRANCH  13  19
ATOM     17  C   UNL     1     -45.048 -14.282 -18.246  0.00  0.00    +0.000 A 
ATOM     18  C   UNL     1     -45.724 -15.512 -18.201  0.00  0.00    +0.000 A 
ATOM     19  C   UNL     1     -46.111 -16.159 -19.378  0.00  0.00    +0.000 A 
ATOM     20  C   UNL     1     -45.845 -15.556 -20.615  0.00  0.00    +0.000 A 
ATOM     21  C   UNL     1     -45.172 -14.333 -20.673  0.00  0.00    +0.000 A 
ATOM     22  C   UNL     1     -44.774 -13.699 -19.492  0.00  0.00    +0.000 A 
BRANCH  17  24
ATOM     23  C   UNL     1     -43.294 -12.978 -16.868  0.00  0.00    +0.000 C 
ATOM     24  C   UNL     1     -44.636 -13.617 -16.996  0.00  0.00    +0.000 C 
ATOM     25  O   UNL     1     -45.421 -13.579 -16.010  0.00  0.00    +0.000 OA
ENDBRANCH  17  24
ENDBRANCH  13  19
ENDBRANCH   1  14
BRANCH   6  26
ATOM     26  S   UNL     1     -45.265 -18.454 -25.199  0.00  0.00    +0.000 S 
ATOM     27  O   UNL     1     -46.702 -18.872 -25.052  0.00  0.00    +0.000 OA
ATOM     28  O   UNL     1     -44.658 -19.210 -26.349  0.00  0.00    +0.000 OA
BRANCH  26  29
ATOM     29  N   UNL     1     -45.179 -16.746 -25.496  0.00  0.00    +0.000 NA
ATOM     30  C   UNL     1     -43.860 -16.284 -25.060  0.00  0.00    +0.000 C 
ATOM     31  C   UNL     1     -43.810 -14.755 -25.114  0.00  0.00    +0.000 C 
ATOM     32  O   UNL     1     -44.780 -14.217 -24.247  0.00  0.00    +0.000 OA
ATOM     33  C   UNL     1     -46.040 -14.579 -24.759  0.00  0.00    +0.000 C 
ATOM     34  C   UNL     1     -46.210 -16.098 -24.684  0.00  0.00    +0.000 C 
ENDBRANCH  26  29
ENDBRANCH   6  26
TORSDOF 5
ENDMDL
MODEL 2
REMARK VINA RESULT:      -6.9      2.694      3.785
REMARK  Name = ZINC000016045159 CSC026732198 MCULE-2825595349 MolPort-005-315-093
REMARK  5 active torsions:
REMARK  status: ('A' for Active; 'I' for Inactive)
REMARK    1  A    between atoms: C_1  and  C_14
REMARK    2  A    between atoms: C_6  and  S_26
REMARK    3  A    between atoms: N_13  and  C_19
REMARK    4  A    between atoms: C_17  and  C_24
REMARK    5  A    between atoms: S_26  and  N_29
REMARK                            x       y       z     vdW  Elec       q    Type
REMARK                         _______ _______ _______ _____ _____    ______ ____
ROOT
ATOM      1  C   UNL     1     -42.885 -19.513 -18.529  0.00  0.00    +0.000 A 
ATOM      2  C   UNL     1     -41.978 -19.498 -19.613  0.00  0.00    +0.000 A 
ATOM      3  C   UNL     1     -40.720 -18.872 -19.447  0.00  0.00    +0.000 A 
ATOM      4  C   UNL     1     -39.808 -18.837 -20.505  0.00  0.00    +0.000 A 
ATOM      5  C   UNL     1     -40.138 -19.413 -21.734  0.00  0.00    +0.000 A 
ATOM      6  C   UNL     1     -41.382 -20.023 -21.913  0.00  0.00    +0.000 A 
ATOM      7  C   UNL     1     -42.297 -20.065 -20.856  0.00  0.00    +0.000 A 
ATOM      8  N   UNL     1     -40.393 -18.300 -18.258  0.00  0.00    +0.000 N 
ATOM      9  C   UNL     1     -41.251 -18.309 -17.204  0.00  0.00    +0.000 A 
ATOM     10  O   UNL     1     -40.916 -17.769 -16.118  0.00  0.00    +0.000 OA
ATOM     11  C   UNL     1     -42.501 -18.914 -17.322  0.00  0.00    +0.000 A 
ATOM     12  H   UNL     1     -39.515 -17.869 -18.158  0.00  0.00    +0.000 HD
ENDROOT
BRANCH   1  14
ATOM     13  N   UNL     1     -45.402 -19.431 -18.923  0.00  0.00    +0.000 N 
ATOM     14  C   UNL     1     -44.213 -20.168 -18.607  0.00  0.00    +0.000 C 
ATOM     15  O   UNL     1     -44.321 -21.390 -18.322  0.00  0.00    +0.000 OA
ATOM     16  H   UNL     1     -46.241 -19.737 -18.506  0.00  0.00    +0.000 HD
BRANCH  13  19
ATOM     17  C   UNL     1     -46.021 -15.932 -20.076  0.00  0.00    +0.000 A 
ATOM     18  C   UNL     1     -45.895 -17.065 -19.256  0.00  0.00    +0.000 A 
ATOM     19  C   UNL     1     -45.486 -18.291 -19.788  0.00  0.00    +0.000 A 
ATOM     20  C   UNL     1     -45.225 -18.393 -21.162  0.00  0.00    +0.000 A 
ATOM     21  C   UNL     1     -45.347 -17.273 -21.987  0.00  0.00    +0.000 A 
ATOM     22  C   UNL     1     -45.741 -16.046 -21.445  0.00  0.00    +0.000 A 
BRANCH  17  24
ATOM     23  C   UNL     1     -47.380 -13.740 -20.229  0.00  0.00    +0.000 C 
ATOM     24  C   UNL     1     -46.444 -14.643 -19.497  0.00  0.00    +0.000 C 
ATOM     25  O   UNL     1     -46.017 -14.284 -18.367  0.00  0.00    +0.000 OA
ENDBRANCH  17  24
ENDBRANCH  13  19
ENDBRANCH   1  14
BRANCH   6  26
ATOM     26  S   UNL     1     -41.784 -20.760 -23.455  0.00  0.00    +0.000 S 
ATOM     27  O   UNL     1     -42.444 -22.088 -23.206  0.00  0.00    +0.000 OA
ATOM     28  O   UNL     1     -40.526 -20.986 -24.249  0.00  0.00    +0.000 OA
BRANCH  26  29
ATOM     29  N   UNL     1     -42.865 -19.724 -24.334  0.00  0.00    +0.000 NA
ATOM     30  C   UNL     1     -44.200 -20.324 -24.279  0.00  0.00    +0.000 C 
ATOM     31  C   UNL     1     -45.144 -19.556 -25.208  0.00  0.00    +0.000 C 
ATOM     32  O   UNL     1     -44.676 -19.634 -26.533  0.00  0.00    +0.000 OA
ATOM     33  C   UNL     1     -43.448 -18.947 -26.579  0.00  0.00    +0.000 C 
ATOM     34  C   UNL     1     -42.412 -19.683 -25.727  0.00  0.00    +0.000 C 
ENDBRANCH  26  29
ENDBRANCH   6  26
TORSDOF 5
ENDMDL
MODEL 3
REMARK VINA RESULT:      -6.8     10.508     14.434
REMARK  Name = ZINC000016045159 CSC026732198 MCULE-2825595349 MolPort-005-315-093
REMARK  5 active torsions:
REMARK  status: ('A' for Active; 'I' for Inactive)
REMARK    1  A    between atoms: C_1  and  C_14
REMARK    2  A    between atoms: C_6  and  S_26
REMARK    3  A    between atoms: N_13  and  C_19
REMARK    4  A    between atoms: C_17  and  C_24
REMARK    5  A    between atoms: S_26  and  N_29
REMARK                            x       y       z     vdW  Elec       q    Type
REMARK                         _______ _______ _______ _____ _____    ______ ____
ROOT
ATOM      1  C   UNL     1     -44.816  -6.701 -27.383  0.00  0.00    +0.000 A 
ATOM      2  C   UNL     1     -45.588  -5.856 -28.212  0.00  0.00    +0.000 A 
ATOM      3  C   UNL     1     -46.770  -5.277 -27.692  0.00  0.00    +0.000 A 
ATOM      4  C   UNL     1     -47.556  -4.444 -28.493  0.00  0.00    +0.000 A 
ATOM      5  C   UNL     1     -47.181  -4.184 -29.813  0.00  0.00    +0.000 A 
ATOM      6  C   UNL     1     -46.022  -4.760 -30.341  0.00  0.00    +0.000 A 
ATOM      7  C   UNL     1     -45.230  -5.591 -29.543  0.00  0.00    +0.000 A 
ATOM      8  N   UNL     1     -47.149  -5.532 -26.411  0.00  0.00    +0.000 N 
ATOM      9  C   UNL     1     -46.417  -6.338 -25.600  0.00  0.00    +0.000 A 
ATOM     10  O   UNL     1     -46.797  -6.551 -24.419  0.00  0.00    +0.000 OA
ATOM     11  C   UNL     1     -45.244  -6.929 -26.069  0.00  0.00    +0.000 A 
ATOM     12  H   UNL     1     -47.973  -5.122 -26.064  0.00  0.00    +0.000 HD
ENDROOT
BRANCH   1  14
ATOM     13  N   UNL     1     -43.480  -8.716 -28.192  0.00  0.00    +0.000 N 
ATOM     14  C   UNL     1     -43.552  -7.327 -27.838  0.00  0.00    +0.000 C 
ATOM     15  O   UNL     1     -42.491  -6.648 -27.851  0.00  0.00    +0.000 OA
ATOM     16  H   UNL     1     -42.631  -9.180 -28.008  0.00  0.00    +0.000 HD
BRANCH  13  19
ATOM     17  C   UNL     1     -45.975 -11.449 -28.699  0.00  0.00    +0.000 A 
ATOM     18  C   UNL     1     -44.973 -10.644 -28.134  0.00  0.00    +0.000 A 
ATOM     19  C   UNL     1     -44.528  -9.491 -28.787  0.00  0.00    +0.000 A 
ATOM     20  C   UNL     1     -45.072  -9.154 -30.034  0.00  0.00    +0.000 A 
ATOM     21  C   UNL     1     -46.069  -9.947 -30.606  0.00  0.00    +0.000 A 
ATOM     22  C   UNL     1     -46.520 -11.089 -29.940  0.00  0.00    +0.000 A 
BRANCH  17  24
ATOM     23  C   UNL     1     -45.692 -13.944 -28.090  0.00  0.00    +0.000 C 
ATOM     24  C   UNL     1     -46.441 -12.657 -27.992  0.00  0.00    +0.000 C 
ATOM     25  O   UNL     1     -47.487 -12.617 -27.290  0.00  0.00    +0.000 OA
ENDBRANCH  17  24
ENDBRANCH  13  19
ENDBRANCH   1  14
BRANCH   6  26
ATOM     26  S   UNL     1     -45.548  -4.416 -31.997  0.00  0.00    +0.000 S 
ATOM     27  O   UNL     1     -46.772  -4.056 -32.791  0.00  0.00    +0.000 OA
ATOM     28  O   UNL     1     -44.921  -5.640 -32.605  0.00  0.00    +0.000 OA
BRANCH  26  29
ATOM     29  N   UNL     1     -44.423  -3.095 -32.021  0.00  0.00    +0.000 NA
ATOM     30  C   UNL     1     -45.187  -1.856 -31.859  0.00  0.00    +0.000 C 
ATOM     31  C   UNL     1     -44.264  -0.654 -32.077  0.00  0.00    +0.000 C 
ATOM     32  O   UNL     1     -43.741  -0.686 -33.382  0.00  0.00    +0.000 OA
ATOM     33  C   UNL     1     -42.918  -1.824 -33.470  0.00  0.00    +0.000 C 
ATOM     34  C   UNL     1     -43.767  -3.089 -33.330  0.00  0.00    +0.000 C 
ENDBRANCH  26  29
ENDBRANCH   6  26
TORSDOF 5
ENDMDL
