MODEL 1
REMARK VINA RESULT:      -7.5      0.000      0.000
REMARK  Name = ZINC000031810529
REMARK  1 active torsions:
REMARK  status: ('A' for Active; 'I' for Inactive)
REMARK    1  A    between atoms: C_7  and  C_24
REMARK                            x       y       z     vdW  Elec       q    Type
REMARK                         _______ _______ _______ _____ _____    ______ ____
ROOT
ATOM      1  C   UNL     1     -43.075  -5.954 -34.856  0.00  0.00    +0.000 C 
ATOM      2  C   UNL     1     -43.813  -6.150 -33.577  0.00  0.00    +0.000 A 
ATOM      3  N   UNL     1     -43.680  -7.243 -32.806  0.00  0.00    +0.000 NA
ATOM      4  N   UNL     1     -44.465  -7.087 -31.752  0.00  0.00    +0.000 N 
ATOM      5  C   UNL     1     -45.083  -5.884 -31.815  0.00  0.00    +0.000 A 
ATOM      6  C   UNL     1     -44.698  -5.256 -32.999  0.00  0.00    +0.000 A 
ATOM      7  C   UNL     1     -45.029  -3.902 -33.564  0.00  0.00    +0.000 C 
ATOM      8  S   UNL     1     -46.697  -3.293 -33.163  0.00  0.00    +0.000 S 
ATOM      9  C   UNL     1     -46.254  -2.953 -31.442  0.00  0.00    +0.000 C 
ATOM     10  C   UNL     1     -46.573  -4.129 -30.596  0.00  0.00    +0.000 C 
ATOM     11  O   UNL     1     -47.405  -3.985 -29.663  0.00  0.00    +0.000 OA
ATOM     12  N   UNL     1     -45.946  -5.402 -30.771  0.00  0.00    +0.000 N 
ATOM     13  H   UNL     1     -46.138  -6.057 -30.061  0.00  0.00    +0.000 HD
ATOM     14  C   UNL     1     -44.547  -8.057 -30.699  0.00  0.00    +0.000 A 
ATOM     15  N   UNL     1     -43.420  -8.708 -30.278  0.00  0.00    +0.000 NA
ATOM     16  C   UNL     1     -43.468  -9.663 -29.295  0.00  0.00    +0.000 A 
ATOM     17  N   UNL     1     -44.659 -10.002 -28.717  0.00  0.00    +0.000 NA
ATOM     18  C   UNL     1     -45.778  -9.370 -29.142  0.00  0.00    +0.000 A 
ATOM     19  N   UNL     1     -47.032  -9.608 -28.737  0.00  0.00    +0.000 N 
ATOM     20  C   UNL     1     -47.756  -8.759 -29.516  0.00  0.00    +0.000 A 
ATOM     21  N   UNL     1     -47.004  -8.022 -30.378  0.00  0.00    +0.000 NA
ATOM     22  C   UNL     1     -45.755  -8.426 -30.106  0.00  0.00    +0.000 A 
ATOM     23  H   UNL     1     -47.349 -10.237 -28.051  0.00  0.00    +0.000 HD
ENDROOT
BRANCH   7  24
ATOM     24  C   UNL     1     -43.948  -2.870 -33.395  0.00  0.00    +0.000 A 
ATOM     25  C   UNL     1     -44.278  -1.515 -33.510  0.00  0.00    +0.000 A 
ATOM     26  C   UNL     1     -43.296  -0.534 -33.347  0.00  0.00    +0.000 A 
ATOM     27  C   UNL     1     -41.978  -0.902 -33.065  0.00  0.00    +0.000 A 
ATOM     28  F   UNL     1     -41.031   0.055 -32.907  0.00  0.00    +0.000 F 
ATOM     29  C   UNL     1     -41.641  -2.255 -32.944  0.00  0.00    +0.000 A 
ATOM     30  F   UNL     1     -40.365  -2.620 -32.668  0.00  0.00    +0.000 F 
ATOM     31  C   UNL     1     -42.623  -3.236 -33.107  0.00  0.00    +0.000 A 
ENDBRANCH   7  24
TORSDOF 1
ENDMDL
MODEL 2
REMARK VINA RESULT:      -7.4      4.244      7.432
REMARK  Name = ZINC000031810529
REMARK  1 active torsions:
REMARK  status: ('A' for Active; 'I' for Inactive)
REMARK    1  A    between atoms: C_7  and  C_24
REMARK                            x       y       z     vdW  Elec       q    Type
REMARK                         _______ _______ _______ _____ _____    ______ ____
ROOT
ATOM      1  C   UNL     1     -42.493  -6.831 -27.590  0.00  0.00    +0.000 C 
ATOM      2  C   UNL     1     -42.989  -6.154 -28.821  0.00  0.00    +0.000 A 
ATOM      3  N   UNL     1     -42.185  -5.753 -29.821  0.00  0.00    +0.000 NA
ATOM      4  N   UNL     1     -42.949  -5.203 -30.751  0.00  0.00    +0.000 N 
ATOM      5  C   UNL     1     -44.248  -5.273 -30.379  0.00  0.00    +0.000 A 
ATOM      6  C   UNL     1     -44.311  -5.868 -29.119  0.00  0.00    +0.000 A 
ATOM      7  C   UNL     1     -45.479  -6.238 -28.247  0.00  0.00    +0.000 C 
ATOM      8  S   UNL     1     -46.913  -5.126 -28.376  0.00  0.00    +0.000 S 
ATOM      9  C   UNL     1     -47.367  -5.758 -30.009  0.00  0.00    +0.000 C 
ATOM     10  C   UNL     1     -46.737  -4.929 -31.066  0.00  0.00    +0.000 C 
ATOM     11  O   UNL     1     -47.486  -4.327 -31.878  0.00  0.00    +0.000 OA
ATOM     12  N   UNL     1     -45.320  -4.819 -31.223  0.00  0.00    +0.000 N 
ATOM     13  H   UNL     1     -45.031  -4.356 -32.042  0.00  0.00    +0.000 HD
ATOM     14  C   UNL     1     -42.418  -4.691 -31.982  0.00  0.00    +0.000 A 
ATOM     15  N   UNL     1     -41.407  -5.354 -32.620  0.00  0.00    +0.000 NA
ATOM     16  C   UNL     1     -40.857  -4.877 -33.782  0.00  0.00    +0.000 A 
ATOM     17  N   UNL     1     -41.301  -3.705 -34.328  0.00  0.00    +0.000 NA
ATOM     18  C   UNL     1     -42.292  -3.039 -33.691  0.00  0.00    +0.000 A 
ATOM     19  N   UNL     1     -42.813  -1.857 -34.040  0.00  0.00    +0.000 N 
ATOM     20  C   UNL     1     -43.707  -1.624 -33.041  0.00  0.00    +0.000 A 
ATOM     21  N   UNL     1     -43.750  -2.605 -32.099  0.00  0.00    +0.000 NA
ATOM     22  C   UNL     1     -42.850  -3.491 -32.547  0.00  0.00    +0.000 A 
ATOM     23  H   UNL     1     -42.602  -1.298 -34.822  0.00  0.00    +0.000 HD
ENDROOT
BRANCH   7  24
ATOM     24  C   UNL     1     -45.838  -7.699 -28.268  0.00  0.00    +0.000 A 
ATOM     25  C   UNL     1     -45.358  -8.502 -29.308  0.00  0.00    +0.000 A 
ATOM     26  C   UNL     1     -45.667  -9.865 -29.347  0.00  0.00    +0.000 A 
ATOM     27  C   UNL     1     -46.456 -10.433 -28.343  0.00  0.00    +0.000 A 
ATOM     28  F   UNL     1     -46.751 -11.756 -28.387  0.00  0.00    +0.000 F 
ATOM     29  C   UNL     1     -46.936  -9.637 -27.297  0.00  0.00    +0.000 A 
ATOM     30  F   UNL     1     -47.700 -10.181 -26.318  0.00  0.00    +0.000 F 
ATOM     31  C   UNL     1     -46.627  -8.275 -27.258  0.00  0.00    +0.000 A 
ENDBRANCH   7  24
TORSDOF 1
ENDMDL
MODEL 3
REMARK VINA RESULT:      -7.4     10.991     13.767
REMARK  Name = ZINC000031810529
REMARK  1 active torsions:
REMARK  status: ('A' for Active; 'I' for Inactive)
REMARK    1  A    between atoms: C_7  and  C_24
REMARK                            x       y       z     vdW  Elec       q    Type
REMARK                         _______ _______ _______ _____ _____    ______ ____
ROOT
ATOM      1  C   UNL     1     -42.726 -13.266 -24.146  0.00  0.00    +0.000 C 
ATOM      2  C   UNL     1     -43.539 -14.413 -23.653  0.00  0.00    +0.000 A 
ATOM      3  N   UNL     1     -44.124 -14.440 -22.442  0.00  0.00    +0.000 NA
ATOM      4  N   UNL     1     -44.767 -15.592 -22.335  0.00  0.00    +0.000 N 
ATOM      5  C   UNL     1     -44.632 -16.300 -23.480  0.00  0.00    +0.000 A 
ATOM      6  C   UNL     1     -43.823 -15.574 -24.352  0.00  0.00    +0.000 A 
ATOM      7  C   UNL     1     -43.379 -15.846 -25.763  0.00  0.00    +0.000 C 
ATOM      8  S   UNL     1     -43.137 -17.605 -26.163  0.00  0.00    +0.000 S 
ATOM      9  C   UNL     1     -44.916 -17.933 -26.192  0.00  0.00    +0.000 C 
ATOM     10  C   UNL     1     -45.368 -18.387 -24.854  0.00  0.00    +0.000 C 
ATOM     11  O   UNL     1     -45.882 -19.532 -24.755  0.00  0.00    +0.000 OA
ATOM     12  N   UNL     1     -45.282 -17.566 -23.687  0.00  0.00    +0.000 N 
ATOM     13  H   UNL     1     -45.743 -17.926 -22.895  0.00  0.00    +0.000 HD
ATOM     14  C   UNL     1     -45.534 -15.943 -21.175  0.00  0.00    +0.000 A 
ATOM     15  N   UNL     1     -46.284 -14.993 -20.536  0.00  0.00    +0.000 NA
ATOM     16  C   UNL     1     -47.004 -15.288 -19.407  0.00  0.00    +0.000 A 
ATOM     17  N   UNL     1     -46.979 -16.548 -18.879  0.00  0.00    +0.000 NA
ATOM     18  C   UNL     1     -46.226 -17.486 -19.500  0.00  0.00    +0.000 A 
ATOM     19  N   UNL     1     -46.034 -18.748 -19.100  0.00  0.00    +0.000 N 
ATOM     20  C   UNL     1     -45.159 -19.220 -20.031  0.00  0.00    +0.000 A 
ATOM     21  N   UNL     1     -44.808 -18.303 -20.973  0.00  0.00    +0.000 NA
ATOM     22  C   UNL     1     -45.510 -17.220 -20.613  0.00  0.00    +0.000 A 
ATOM     23  H   UNL     1     -46.425 -19.217 -18.329  0.00  0.00    +0.000 HD
ENDROOT
BRANCH   7  24
ATOM     24  C   UNL     1     -44.132 -15.081 -26.817  0.00  0.00    +0.000 A 
ATOM     25  C   UNL     1     -43.624 -15.039 -28.120  0.00  0.00    +0.000 A 
ATOM     26  C   UNL     1     -44.309 -14.345 -29.122  0.00  0.00    +0.000 A 
ATOM     27  C   UNL     1     -45.508 -13.691 -28.826  0.00  0.00    +0.000 A 
ATOM     28  F   UNL     1     -46.167 -13.021 -29.803  0.00  0.00    +0.000 F 
ATOM     29  C   UNL     1     -46.025 -13.732 -27.526  0.00  0.00    +0.000 A 
ATOM     30  F   UNL     1     -47.188 -13.102 -27.233  0.00  0.00    +0.000 F 
ATOM     31  C   UNL     1     -45.340 -14.426 -26.525  0.00  0.00    +0.000 A 
ENDBRANCH   7  24
TORSDOF 1
ENDMDL
