MODEL 1
REMARK VINA RESULT:      -7.8      0.000      0.000
REMARK  Name = ZINC000253471169 PubChem-124891265
REMARK  9 active torsions:
REMARK  status: ('A' for Active; 'I' for Inactive)
REMARK    1  A    between atoms: C_1  and  C_2
REMARK    2  A    between atoms: C_1  and  C_18
REMARK    3  A    between atoms: C_1  and  C_25
REMARK    4  A    between atoms: C_3  and  O_4
REMARK    5  A    between atoms: C_15  and  O_24
REMARK    6  A    between atoms: C_20  and  O_21
REMARK    7  A    between atoms: C_25  and  C_26
REMARK    8  A    between atoms: N_28  and  C_30
REMARK    9  A    between atoms: C_30  and  C_31
REMARK                            x       y       z     vdW  Elec       q    Type
REMARK                         _______ _______ _______ _____ _____    ______ ____
ROOT
ATOM      1  C   UNL     1     -45.954  -5.564 -30.437  0.00  0.00    +0.000 C 
ENDROOT
BRANCH   1   2
ATOM      2  C   UNL     1     -44.902  -4.622 -30.964  0.00  0.00    +0.000 A 
ATOM      3  C   UNL     1     -45.299  -3.380 -31.479  0.00  0.00    +0.000 A 
ATOM      4  C   UNL     1     -44.334  -2.501 -31.981  0.00  0.00    +0.000 A 
ATOM      5  C   UNL     1     -44.685  -1.245 -32.493  0.00  0.00    +0.000 A 
ATOM      6  C   UNL     1     -43.695  -0.392 -32.991  0.00  0.00    +0.000 A 
ATOM      7  C   UNL     1     -42.354  -0.791 -32.976  0.00  0.00    +0.000 A 
ATOM      8  C   UNL     1     -41.998  -2.041 -32.463  0.00  0.00    +0.000 A 
ATOM      9  C   UNL     1     -42.982  -2.900 -31.963  0.00  0.00    +0.000 A 
ATOM     10  O   UNL     1     -42.638  -4.085 -31.471  0.00  0.00    +0.000 OA
ATOM     11  C   UNL     1     -43.526  -4.944 -30.978  0.00  0.00    +0.000 A 
ATOM     12  O   UNL     1     -43.119  -6.045 -30.520  0.00  0.00    +0.000 OA
BRANCH   3  13
ATOM     13  O   UNL     1     -46.647  -3.023 -31.486  0.00  0.00    +0.000 OA
ATOM     14  H   UNL     1     -47.307  -3.687 -31.503  0.00  0.00    +0.000 HD
ENDBRANCH   3  13
ENDBRANCH   1   2
BRANCH   1  18
ATOM     15  C   UNL     1     -46.043  -9.370 -32.478  0.00  0.00    +0.000 A 
ATOM     16  C   UNL     1     -45.708  -9.305 -31.121  0.00  0.00    +0.000 A 
ATOM     17  C   UNL     1     -45.667  -8.081 -30.452  0.00  0.00    +0.000 A 
ATOM     18  C   UNL     1     -45.955  -6.894 -31.135  0.00  0.00    +0.000 A 
ATOM     19  C   UNL     1     -46.288  -6.947 -32.490  0.00  0.00    +0.000 A 
ATOM     20  C   UNL     1     -46.335  -8.170 -33.168  0.00  0.00    +0.000 A 
BRANCH  20  21
ATOM     21  O   UNL     1     -46.682  -8.167 -34.513  0.00  0.00    +0.000 OA
ATOM     22  H   UNL     1     -47.479  -8.572 -34.792  0.00  0.00    +0.000 HD
ENDBRANCH  20  21
BRANCH  15  24
ATOM     23  C   UNL     1     -45.373 -10.987 -34.265  0.00  0.00    +0.000 C 
ATOM     24  O   UNL     1     -46.069 -10.639 -33.076  0.00  0.00    +0.000 OA
ENDBRANCH  15  24
ENDBRANCH   1  18
BRANCH   1  25
ATOM     25  C   UNL     1     -45.964  -5.663 -28.910  0.00  0.00    +0.000 C 
BRANCH  25  26
ATOM     26  C   UNL     1     -46.873  -4.642 -28.313  0.00  0.00    +0.000 C 
ATOM     27  O   UNL     1     -47.698  -4.039 -29.048  0.00  0.00    +0.000 OA
ATOM     28  N   UNL     1     -46.805  -4.361 -26.915  0.00  0.00    +0.000 N 
ATOM     29  H   UNL     1     -46.091  -4.778 -26.382  0.00  0.00    +0.000 HD
BRANCH  28  30
ATOM     30  C   UNL     1     -47.753  -3.482 -26.250  0.00  0.00    +0.000 C 
BRANCH  30  31
ATOM     31  C   UNL     1     -47.418  -3.398 -24.803  0.00  0.00    +0.000 A 
ATOM     32  C   UNL     1     -47.144  -4.580 -24.079  0.00  0.00    +0.000 A 
ATOM     33  C   UNL     1     -46.801  -4.520 -22.717  0.00  0.00    +0.000 A 
ATOM     34  C   UNL     1     -46.739  -3.262 -22.126  0.00  0.00    +0.000 A 
ATOM     35  C   UNL     1     -46.996  -2.124 -22.820  0.00  0.00    +0.000 A 
ATOM     36  C   UNL     1     -47.337  -2.143 -24.171  0.00  0.00    +0.000 A 
ATOM     37  O   UNL     1     -46.864  -1.035 -21.983  0.00  0.00    +0.000 OA
ATOM     38  C   UNL     1     -46.505  -1.516 -20.679  0.00  0.00    +0.000 C 
ATOM     39  O   UNL     1     -46.433  -2.942 -20.817  0.00  0.00    +0.000 OA
ENDBRANCH  30  31
ENDBRANCH  28  30
ENDBRANCH  25  26
ENDBRANCH   1  25
TORSDOF 9
ENDMDL
MODEL 2
REMARK VINA RESULT:      -7.7      3.515      6.778
REMARK  Name = ZINC000253471169 PubChem-124891265
REMARK  9 active torsions:
REMARK  status: ('A' for Active; 'I' for Inactive)
REMARK    1  A    between atoms: C_1  and  C_2
REMARK    2  A    between atoms: C_1  and  C_18
REMARK    3  A    between atoms: C_1  and  C_25
REMARK    4  A    between atoms: C_3  and  O_4
REMARK    5  A    between atoms: C_15  and  O_24
REMARK    6  A    between atoms: C_20  and  O_21
REMARK    7  A    between atoms: C_25  and  C_26
REMARK    8  A    between atoms: N_28  and  C_30
REMARK    9  A    between atoms: C_30  and  C_31
REMARK                            x       y       z     vdW  Elec       q    Type
REMARK                         _______ _______ _______ _____ _____    ______ ____
ROOT
ATOM      1  C   UNL     1     -45.699  -6.158 -30.380  0.00  0.00    +0.000 C 
ENDROOT
BRANCH   1   2
ATOM      2  C   UNL     1     -45.444  -4.732 -30.797  0.00  0.00    +0.000 A 
ATOM      3  C   UNL     1     -44.195  -4.397 -31.338  0.00  0.00    +0.000 A 
ATOM      4  C   UNL     1     -43.940  -3.076 -31.720  0.00  0.00    +0.000 A 
ATOM      5  C   UNL     1     -42.710  -2.699 -32.276  0.00  0.00    +0.000 A 
ATOM      6  C   UNL     1     -42.488  -1.368 -32.643  0.00  0.00    +0.000 A 
ATOM      7  C   UNL     1     -43.494  -0.413 -32.458  0.00  0.00    +0.000 A 
ATOM      8  C   UNL     1     -44.724  -0.784 -31.907  0.00  0.00    +0.000 A 
ATOM      9  C   UNL     1     -44.954  -2.113 -31.537  0.00  0.00    +0.000 A 
ATOM     10  O   UNL     1     -46.127  -2.461 -31.020  0.00  0.00    +0.000 OA
ATOM     11  C   UNL     1     -46.408  -3.709 -30.652  0.00  0.00    +0.000 A 
ATOM     12  O   UNL     1     -47.547  -3.962 -30.179  0.00  0.00    +0.000 OA
BRANCH   3  13
ATOM     13  O   UNL     1     -43.215  -5.376 -31.497  0.00  0.00    +0.000 OA
ATOM     14  H   UNL     1     -42.515  -5.444 -30.877  0.00  0.00    +0.000 HD
ENDBRANCH   3  13
ENDBRANCH   1   2
BRANCH   1  18
ATOM     15  C   UNL     1     -45.107  -6.737 -26.139  0.00  0.00    +0.000 A 
ATOM     16  C   UNL     1     -44.040  -6.899 -27.029  0.00  0.00    +0.000 A 
ATOM     17  C   UNL     1     -44.220  -6.723 -28.402  0.00  0.00    +0.000 A 
ATOM     18  C   UNL     1     -45.479  -6.388 -28.911  0.00  0.00    +0.000 A 
ATOM     19  C   UNL     1     -46.552  -6.226 -28.033  0.00  0.00    +0.000 A 
ATOM     20  C   UNL     1     -46.380  -6.396 -26.655  0.00  0.00    +0.000 A 
BRANCH  20  21
ATOM     21  O   UNL     1     -47.479  -6.213 -25.825  0.00  0.00    +0.000 OA
ATOM     22  H   UNL     1     -47.353  -5.986 -24.924  0.00  0.00    +0.000 HD
ENDBRANCH  20  21
BRANCH  15  24
ATOM     23  C   UNL     1     -45.011  -8.151 -24.079  0.00  0.00    +0.000 C 
ATOM     24  O   UNL     1     -44.844  -6.923 -24.774  0.00  0.00    +0.000 OA
ENDBRANCH  15  24
ENDBRANCH   1  18
BRANCH   1  25
ATOM     25  C   UNL     1     -47.026  -6.711 -30.904  0.00  0.00    +0.000 C 
BRANCH  25  26
ATOM     26  C   UNL     1     -46.960  -8.191 -31.074  0.00  0.00    +0.000 C 
ATOM     27  O   UNL     1     -46.582  -8.675 -32.172  0.00  0.00    +0.000 OA
ATOM     28  N   UNL     1     -47.319  -9.047 -29.988  0.00  0.00    +0.000 N 
ATOM     29  H   UNL     1     -47.698  -8.646 -29.174  0.00  0.00    +0.000 HD
BRANCH  28  30
ATOM     30  C   UNL     1     -47.144 -10.489 -30.043  0.00  0.00    +0.000 C 
BRANCH  30  31
ATOM     31  C   UNL     1     -46.572 -10.967 -28.755  0.00  0.00    +0.000 A 
ATOM     32  C   UNL     1     -45.661 -10.149 -28.049  0.00  0.00    +0.000 A 
ATOM     33  C   UNL     1     -45.128 -10.571 -26.818  0.00  0.00    +0.000 A 
ATOM     34  C   UNL     1     -45.538 -11.810 -26.333  0.00  0.00    +0.000 A 
ATOM     35  C   UNL     1     -46.417 -12.594 -27.007  0.00  0.00    +0.000 A 
ATOM     36  C   UNL     1     -46.967 -12.209 -28.227  0.00  0.00    +0.000 A 
ATOM     37  O   UNL     1     -46.634 -13.757 -26.295  0.00  0.00    +0.000 OA
ATOM     38  C   UNL     1     -45.840 -13.704 -25.101  0.00  0.00    +0.000 C 
ATOM     39  O   UNL     1     -45.159 -12.442 -25.164  0.00  0.00    +0.000 OA
ENDBRANCH  30  31
ENDBRANCH  28  30
ENDBRANCH  25  26
ENDBRANCH   1  25
TORSDOF 9
ENDMDL
MODEL 3
REMARK VINA RESULT:      -7.7      3.310      7.996
REMARK  Name = ZINC000253471169 PubChem-124891265
REMARK  9 active torsions:
REMARK  status: ('A' for Active; 'I' for Inactive)
REMARK    1  A    between atoms: C_1  and  C_2
REMARK    2  A    between atoms: C_1  and  C_18
REMARK    3  A    between atoms: C_1  and  C_25
REMARK    4  A    between atoms: C_3  and  O_4
REMARK    5  A    between atoms: C_15  and  O_24
REMARK    6  A    between atoms: C_20  and  O_21
REMARK    7  A    between atoms: C_25  and  C_26
REMARK    8  A    between atoms: N_28  and  C_30
REMARK    9  A    between atoms: C_30  and  C_31
REMARK                            x       y       z     vdW  Elec       q    Type
REMARK                         _______ _______ _______ _____ _____    ______ ____
ROOT
ATOM      1  C   UNL     1     -45.225  -4.706 -31.773  0.00  0.00    +0.000 C 
ENDROOT
BRANCH   1   2
ATOM      2  C   UNL     1     -45.537  -5.044 -30.337  0.00  0.00    +0.000 A 
ATOM      3  C   UNL     1     -44.605  -5.784 -29.597  0.00  0.00    +0.000 A 
ATOM      4  C   UNL     1     -44.885  -6.113 -28.267  0.00  0.00    +0.000 A 
ATOM      5  C   UNL     1     -43.977  -6.841 -27.486  0.00  0.00    +0.000 A 
ATOM      6  C   UNL     1     -44.291  -7.156 -26.161  0.00  0.00    +0.000 A 
ATOM      7  C   UNL     1     -45.511  -6.745 -25.613  0.00  0.00    +0.000 A 
ATOM      8  C   UNL     1     -46.419  -6.016 -26.386  0.00  0.00    +0.000 A 
ATOM      9  C   UNL     1     -46.112  -5.696 -27.712  0.00  0.00    +0.000 A 
ATOM     10  O   UNL     1     -46.976  -4.998 -28.441  0.00  0.00    +0.000 OA
ATOM     11  C   UNL     1     -46.741  -4.660 -29.706  0.00  0.00    +0.000 A 
ATOM     12  O   UNL     1     -47.606  -3.987 -30.327  0.00  0.00    +0.000 OA
BRANCH   3  13
ATOM     13  O   UNL     1     -43.404  -6.185 -30.182  0.00  0.00    +0.000 OA
ATOM     14  H   UNL     1     -42.772  -5.543 -30.439  0.00  0.00    +0.000 HD
ENDBRANCH   3  13
ENDBRANCH   1   2
BRANCH   1  18
ATOM     15  C   UNL     1     -42.702  -1.230 -32.231  0.00  0.00    +0.000 A 
ATOM     16  C   UNL     1     -42.200  -2.507 -32.503  0.00  0.00    +0.000 A 
ATOM     17  C   UNL     1     -43.001  -3.639 -32.351  0.00  0.00    +0.000 A 
ATOM     18  C   UNL     1     -44.325  -3.512 -31.914  0.00  0.00    +0.000 A 
ATOM     19  C   UNL     1     -44.836  -2.243 -31.637  0.00  0.00    +0.000 A 
ATOM     20  C   UNL     1     -44.040  -1.102 -31.791  0.00  0.00    +0.000 A 
BRANCH  20  21
ATOM     21  O   UNL     1     -44.603   0.137 -31.511  0.00  0.00    +0.000 OA
ATOM     22  H   UNL     1     -45.219   0.517 -32.107  0.00  0.00    +0.000 HD
ENDBRANCH  20  21
BRANCH  15  24
ATOM     23  C   UNL     1     -40.648   0.081 -31.668  0.00  0.00    +0.000 C 
ATOM     24  O   UNL     1     -41.835  -0.142 -32.415  0.00  0.00    +0.000 OA
ENDBRANCH  15  24
ENDBRANCH   1  18
BRANCH   1  25
ATOM     25  C   UNL     1     -44.783  -5.920 -32.595  0.00  0.00    +0.000 C 
BRANCH  25  26
ATOM     26  C   UNL     1     -45.777  -7.027 -32.493  0.00  0.00    +0.000 C 
ATOM     27  O   UNL     1     -46.952  -6.846 -32.907  0.00  0.00    +0.000 OA
ATOM     28  N   UNL     1     -45.388  -8.282 -31.934  0.00  0.00    +0.000 N 
ATOM     29  H   UNL     1     -44.493  -8.365 -31.534  0.00  0.00    +0.000 HD
BRANCH  28  30
ATOM     30  C   UNL     1     -46.267  -9.439 -31.933  0.00  0.00    +0.000 C 
BRANCH  30  31
ATOM     31  C   UNL     1     -46.363  -9.986 -30.553  0.00  0.00    +0.000 A 
ATOM     32  C   UNL     1     -46.529  -9.103 -29.461  0.00  0.00    +0.000 A 
ATOM     33  C   UNL     1     -46.648  -9.601 -28.152  0.00  0.00    +0.000 A 
ATOM     34  C   UNL     1     -46.601 -10.982 -27.984  0.00  0.00    +0.000 A 
ATOM     35  C   UNL     1     -46.447 -11.832 -29.031  0.00  0.00    +0.000 A 
ATOM     36  C   UNL     1     -46.328 -11.376 -30.342  0.00  0.00    +0.000 A 
ATOM     37  O   UNL     1     -46.431 -13.133 -28.568  0.00  0.00    +0.000 OA
ATOM     38  C   UNL     1     -46.580 -13.100 -27.141  0.00  0.00    +0.000 C 
ATOM     39  O   UNL     1     -46.689 -11.708 -26.811  0.00  0.00    +0.000 OA
ENDBRANCH  30  31
ENDBRANCH  28  30
ENDBRANCH  25  26
ENDBRANCH   1  25
TORSDOF 9
ENDMDL
