MODEL 1
REMARK VINA RESULT:      -6.2      0.000      0.000
REMARK  Name = ZINC000004878449 PubChem-12923698
REMARK  9 active torsions:
REMARK  status: ('A' for Active; 'I' for Inactive)
REMARK    1  A    between atoms: N_17  and  C_20
REMARK    2  A    between atoms: C_20  and  C_21
REMARK    3  A    between atoms: C_21  and  O_22
REMARK    4  A    between atoms: C_21  and  C_24
REMARK    5  A    between atoms: C_24  and  O_25
REMARK    6  A    between atoms: C_24  and  C_27
REMARK    7  A    between atoms: C_27  and  O_28
REMARK    8  A    between atoms: C_27  and  C_30
REMARK    9  A    between atoms: C_30  and  O_31
REMARK                            x       y       z     vdW  Elec       q    Type
REMARK                         _______ _______ _______ _____ _____    ______ ____
ROOT
ATOM      1  C   UNL     1     -47.134  -3.335 -23.481  0.00  0.00    +0.000 C 
ATOM      2  C   UNL     1     -47.107  -3.877 -24.870  0.00  0.00    +0.000 A 
ATOM      3  C   UNL     1     -47.380  -3.062 -25.982  0.00  0.00    +0.000 A 
ATOM      4  C   UNL     1     -47.346  -3.608 -27.267  0.00  0.00    +0.000 A 
ATOM      5  C   UNL     1     -47.044  -4.965 -27.474  0.00  0.00    +0.000 A 
ATOM      6  C   UNL     1     -46.770  -5.776 -26.342  0.00  0.00    +0.000 A 
ATOM      7  C   UNL     1     -46.805  -5.227 -25.057  0.00  0.00    +0.000 A 
ATOM      8  C   UNL     1     -46.463  -7.125 -26.494  0.00  0.00    +0.000 A 
ATOM      9  C   UNL     1     -46.424  -7.681 -27.767  0.00  0.00    +0.000 A 
ATOM     10  C   UNL     1     -46.123  -9.022 -28.008  0.00  0.00    +0.000 A 
ATOM     11  O   UNL     1     -45.870  -9.809 -27.057  0.00  0.00    +0.000 OA
ATOM     12  N   UNL     1     -46.104  -9.485 -29.286  0.00  0.00    +0.000 N 
ATOM     13  C   UNL     1     -46.369  -8.682 -30.352  0.00  0.00    +0.000 A 
ATOM     14  O   UNL     1     -46.338  -9.159 -31.515  0.00  0.00    +0.000 OA
ATOM     15  N   UNL     1     -46.669  -7.368 -30.173  0.00  0.00    +0.000 NA
ATOM     16  C   UNL     1     -46.712  -6.820 -28.929  0.00  0.00    +0.000 A 
ATOM     17  N   UNL     1     -47.014  -5.498 -28.742  0.00  0.00    +0.000 N 
ATOM     18  C   UNL     1     -47.708  -1.615 -25.828  0.00  0.00    +0.000 C 
ATOM     19  H   UNL     1     -45.891 -10.433 -29.446  0.00  0.00    +0.000 HD
ENDROOT
BRANCH  17  20
ATOM     20  C   UNL     1     -47.315  -4.662 -29.909  0.00  0.00    +0.000 C 
BRANCH  20  21
ATOM     21  C   UNL     1     -46.050  -3.998 -30.434  0.00  0.00    +0.000 C 
BRANCH  21  22
ATOM     22  O   UNL     1     -46.234  -2.615 -30.521  0.00  0.00    +0.000 OA
ATOM     23  H   UNL     1     -46.075  -2.213 -29.652  0.00  0.00    +0.000 HD
ENDBRANCH  21  22
BRANCH  21  24
ATOM     24  C   UNL     1     -45.681  -4.586 -31.799  0.00  0.00    +0.000 C 
BRANCH  24  25
ATOM     25  O   UNL     1     -44.778  -5.646 -31.668  0.00  0.00    +0.000 OA
ATOM     26  H   UNL     1     -45.208  -6.382 -31.207  0.00  0.00    +0.000 HD
ENDBRANCH  24  25
BRANCH  24  27
ATOM     27  C   UNL     1     -46.897  -5.008 -32.628  0.00  0.00    +0.000 C 
BRANCH  27  28
ATOM     28  O   UNL     1     -46.811  -6.364 -32.951  0.00  0.00    +0.000 OA
ATOM     29  H   UNL     1     -47.144  -6.502 -33.852  0.00  0.00    +0.000 HD
ENDBRANCH  27  28
BRANCH  27  30
ATOM     30  C   UNL     1     -47.059  -4.174 -33.890  0.00  0.00    +0.000 C 
BRANCH  30  31
ATOM     31  O   UNL     1     -47.358  -2.855 -33.552  0.00  0.00    +0.000 OA
ATOM     32  H   UNL     1     -47.918  -2.463 -34.240  0.00  0.00    +0.000 HD
ENDBRANCH  30  31
ENDBRANCH  27  30
ENDBRANCH  24  27
ENDBRANCH  21  24
ENDBRANCH  20  21
ENDBRANCH  17  20
TORSDOF 9
ENDMDL
MODEL 2
REMARK VINA RESULT:      -6.0      8.676     12.243
REMARK  Name = ZINC000004878449 PubChem-12923698
REMARK  9 active torsions:
REMARK  status: ('A' for Active; 'I' for Inactive)
REMARK    1  A    between atoms: N_17  and  C_20
REMARK    2  A    between atoms: C_20  and  C_21
REMARK    3  A    between atoms: C_21  and  O_22
REMARK    4  A    between atoms: C_21  and  C_24
REMARK    5  A    between atoms: C_24  and  O_25
REMARK    6  A    between atoms: C_24  and  C_27
REMARK    7  A    between atoms: C_27  and  O_28
REMARK    8  A    between atoms: C_27  and  C_30
REMARK    9  A    between atoms: C_30  and  O_31
REMARK                            x       y       z     vdW  Elec       q    Type
REMARK                         _______ _______ _______ _____ _____    ______ ____
ROOT
ATOM      1  C   UNL     1     -45.995 -16.529 -19.181  0.00  0.00    +0.000 C 
ATOM      2  C   UNL     1     -45.790 -16.561 -20.658  0.00  0.00    +0.000 A 
ATOM      3  C   UNL     1     -45.438 -17.747 -21.326  0.00  0.00    +0.000 A 
ATOM      4  C   UNL     1     -45.254 -17.736 -22.710  0.00  0.00    +0.000 A 
ATOM      5  C   UNL     1     -45.415 -16.555 -23.456  0.00  0.00    +0.000 A 
ATOM      6  C   UNL     1     -45.772 -15.366 -22.769  0.00  0.00    +0.000 A 
ATOM      7  C   UNL     1     -45.954 -15.380 -21.385  0.00  0.00    +0.000 A 
ATOM      8  C   UNL     1     -45.945 -14.172 -23.464  0.00  0.00    +0.000 A 
ATOM      9  C   UNL     1     -45.768 -14.147 -24.841  0.00  0.00    +0.000 A 
ATOM     10  C   UNL     1     -45.924 -12.994 -25.613  0.00  0.00    +0.000 A 
ATOM     11  O   UNL     1     -46.238 -11.897 -25.080  0.00  0.00    +0.000 OA
ATOM     12  N   UNL     1     -45.733 -13.057 -26.958  0.00  0.00    +0.000 N 
ATOM     13  C   UNL     1     -45.394 -14.215 -27.588  0.00  0.00    +0.000 A 
ATOM     14  O   UNL     1     -45.229 -14.220 -28.835  0.00  0.00    +0.000 OA
ATOM     15  N   UNL     1     -45.228 -15.365 -26.884  0.00  0.00    +0.000 NA
ATOM     16  C   UNL     1     -45.397 -15.395 -25.535  0.00  0.00    +0.000 A 
ATOM     17  N   UNL     1     -45.231 -16.550 -24.819  0.00  0.00    +0.000 N 
ATOM     18  C   UNL     1     -45.252 -19.031 -20.590  0.00  0.00    +0.000 C 
ATOM     19  H   UNL     1     -45.846 -12.239 -27.494  0.00  0.00    +0.000 HD
ENDROOT
BRANCH  17  20
ATOM     20  C   UNL     1     -44.845 -17.777 -25.525  0.00  0.00    +0.000 C 
BRANCH  20  21
ATOM     21  C   UNL     1     -43.332 -17.870 -25.652  0.00  0.00    +0.000 C 
BRANCH  21  22
ATOM     22  O   UNL     1     -42.765 -16.593 -25.594  0.00  0.00    +0.000 OA
ATOM     23  H   UNL     1     -42.669 -16.241 -26.493  0.00  0.00    +0.000 HD
ENDBRANCH  21  22
BRANCH  21  24
ATOM     24  C   UNL     1     -42.962 -18.573 -26.961  0.00  0.00    +0.000 C 
BRANCH  24  25
ATOM     25  O   UNL     1     -44.074 -19.196 -27.535  0.00  0.00    +0.000 OA
ATOM     26  H   UNL     1     -44.540 -18.565 -28.104  0.00  0.00    +0.000 HD
ENDBRANCH  24  25
BRANCH  24  27
ATOM     27  C   UNL     1     -42.273 -17.652 -27.971  0.00  0.00    +0.000 C 
BRANCH  27  28
ATOM     28  O   UNL     1     -43.167 -16.679 -28.423  0.00  0.00    +0.000 OA
ATOM     29  H   UNL     1     -43.158 -15.925 -27.813  0.00  0.00    +0.000 HD
ENDBRANCH  27  28
BRANCH  27  30
ATOM     30  C   UNL     1     -41.685 -18.415 -29.149  0.00  0.00    +0.000 C 
BRANCH  30  31
ATOM     31  O   UNL     1     -42.660 -18.595 -30.131  0.00  0.00    +0.000 OA
ATOM     32  H   UNL     1     -43.436 -18.054 -29.920  0.00  0.00    +0.000 HD
ENDBRANCH  30  31
ENDBRANCH  27  30
ENDBRANCH  24  27
ENDBRANCH  21  24
ENDBRANCH  20  21
ENDBRANCH  17  20
TORSDOF 9
ENDMDL
MODEL 3
REMARK VINA RESULT:      -5.6     12.181     16.263
REMARK  Name = ZINC000004878449 PubChem-12923698
REMARK  9 active torsions:
REMARK  status: ('A' for Active; 'I' for Inactive)
REMARK    1  A    between atoms: N_17  and  C_20
REMARK    2  A    between atoms: C_20  and  C_21
REMARK    3  A    between atoms: C_21  and  O_22
REMARK    4  A    between atoms: C_21  and  C_24
REMARK    5  A    between atoms: C_24  and  O_25
REMARK    6  A    between atoms: C_24  and  C_27
REMARK    7  A    between atoms: C_27  and  O_28
REMARK    8  A    between atoms: C_27  and  C_30
REMARK    9  A    between atoms: C_30  and  O_31
REMARK                            x       y       z     vdW  Elec       q    Type
REMARK                         _______ _______ _______ _____ _____    ______ ____
ROOT
ATOM      1  C   UNL     1     -44.683 -18.097 -26.163  0.00  0.00    +0.000 C 
ATOM      2  C   UNL     1     -44.862 -17.966 -24.688  0.00  0.00    +0.000 A 
ATOM      3  C   UNL     1     -44.624 -19.046 -23.820  0.00  0.00    +0.000 A 
ATOM      4  C   UNL     1     -44.804 -18.884 -22.445  0.00  0.00    +0.000 A 
ATOM      5  C   UNL     1     -45.222 -17.655 -21.906  0.00  0.00    +0.000 A 
ATOM      6  C   UNL     1     -45.457 -16.573 -22.793  0.00  0.00    +0.000 A 
ATOM      7  C   UNL     1     -45.276 -16.738 -24.169  0.00  0.00    +0.000 A 
ATOM      8  C   UNL     1     -45.869 -15.335 -22.308  0.00  0.00    +0.000 A 
ATOM      9  C   UNL     1     -46.049 -15.159 -20.942  0.00  0.00    +0.000 A 
ATOM     10  C   UNL     1     -46.458 -13.952 -20.372  0.00  0.00    +0.000 A 
ATOM     11  O   UNL     1     -46.689 -12.943 -21.092  0.00  0.00    +0.000 OA
ATOM     12  N   UNL     1     -46.609 -13.864 -19.025  0.00  0.00    +0.000 N 
ATOM     13  C   UNL     1     -46.373 -14.920 -18.198  0.00  0.00    +0.000 A 
ATOM     14  O   UNL     1     -46.528 -14.786 -16.957  0.00  0.00    +0.000 OA
ATOM     15  N   UNL     1     -45.975 -16.118 -18.701  0.00  0.00    +0.000 NA
ATOM     16  C   UNL     1     -45.800 -16.297 -20.037  0.00  0.00    +0.000 A 
ATOM     17  N   UNL     1     -45.399 -17.501 -20.550  0.00  0.00    +0.000 N 
ATOM     18  C   UNL     1     -44.181 -20.376 -24.332  0.00  0.00    +0.000 C 
ATOM     19  H   UNL     1     -46.898 -13.008 -18.632  0.00  0.00    +0.000 HD
ENDROOT
BRANCH  17  20
ATOM     20  C   UNL     1     -45.173 -18.626 -19.636  0.00  0.00    +0.000 C 
BRANCH  20  21
ATOM     21  C   UNL     1     -43.833 -18.481 -18.928  0.00  0.00    +0.000 C 
BRANCH  21  22
ATOM     22  O   UNL     1     -42.885 -17.938 -19.800  0.00  0.00    +0.000 OA
ATOM     23  H   UNL     1     -42.561 -17.097 -19.442  0.00  0.00    +0.000 HD
ENDBRANCH  21  22
BRANCH  21  24
ATOM     24  C   UNL     1     -43.373 -19.843 -18.401  0.00  0.00    +0.000 C 
BRANCH  24  25
ATOM     25  O   UNL     1     -44.429 -20.760 -18.374  0.00  0.00    +0.000 OA
ATOM     26  H   UNL     1     -44.420 -21.239 -17.532  0.00  0.00    +0.000 HD
ENDBRANCH  24  25
BRANCH  24  27
ATOM     27  C   UNL     1     -42.175 -20.416 -19.160  0.00  0.00    +0.000 C 
BRANCH  27  28
ATOM     28  O   UNL     1     -42.547 -20.748 -20.465  0.00  0.00    +0.000 OA
ATOM     29  H   UNL     1     -42.140 -21.594 -20.711  0.00  0.00    +0.000 HD
ENDBRANCH  27  28
BRANCH  27  30
ATOM     30  C   UNL     1     -41.565 -21.623 -18.463  0.00  0.00    +0.000 C 
BRANCH  30  31
ATOM     31  O   UNL     1     -41.955 -21.643 -17.124  0.00  0.00    +0.000 OA
ATOM     32  H   UNL     1     -41.211 -21.371 -16.565  0.00  0.00    +0.000 HD
ENDBRANCH  30  31
ENDBRANCH  27  30
ENDBRANCH  24  27
ENDBRANCH  21  24
ENDBRANCH  20  21
ENDBRANCH  17  20
TORSDOF 9
ENDMDL
