MODEL 1
REMARK VINA RESULT:      -7.1      0.000      0.000
REMARK  Name = ZINC000002104886 ZINC02104886 PubChem-1759855
REMARK  3 active torsions:
REMARK  status: ('A' for Active; 'I' for Inactive)
REMARK    1  A    between atoms: C_12  and  C_20
REMARK    2  A    between atoms: N_27  and  C_31
REMARK    3  A    between atoms: C_36  and  O_37
REMARK                            x       y       z     vdW  Elec       q    Type
REMARK                         _______ _______ _______ _____ _____    ______ ____
ROOT
ATOM      1  C   UNL     1     -46.501  -7.705 -28.524  0.00  0.00    +0.000 C 
ATOM      2  C   UNL     1     -45.013  -7.886 -28.556  0.00  0.00    +0.000 A 
ATOM      3  C   UNL     1     -44.248  -7.716 -27.389  0.00  0.00    +0.000 A 
ATOM      4  C   UNL     1     -44.843  -7.384 -26.164  0.00  0.00    +0.000 A 
ATOM      5  C   UNL     1     -44.065  -7.237 -25.016  0.00  0.00    +0.000 A 
ATOM      6  C   UNL     1     -42.670  -7.401 -25.086  0.00  0.00    +0.000 A 
ATOM      7  C   UNL     1     -42.058  -7.724 -26.313  0.00  0.00    +0.000 A 
ATOM      8  C   UNL     1     -42.847  -7.890 -27.463  0.00  0.00    +0.000 A 
ATOM      9  O   UNL     1     -42.276  -8.203 -28.622  0.00  0.00    +0.000 OA
ATOM     10  C   UNL     1     -42.963  -8.377 -29.745  0.00  0.00    +0.000 A 
ATOM     11  O   UNL     1     -42.340  -8.643 -30.807  0.00  0.00    +0.000 OA
ATOM     12  C   UNL     1     -44.367  -8.251 -29.751  0.00  0.00    +0.000 A 
ATOM     13  C   UNL     1     -40.571  -7.960 -26.372  0.00  0.00    +0.000 C 
ATOM     14  C   UNL     1     -39.836  -7.219 -25.257  0.00  0.00    +0.000 C 
ATOM     15  C   UNL     1     -40.450  -7.580 -23.910  0.00  0.00    +0.000 C 
ATOM     16  N   UNL     1     -41.868  -7.236 -23.900  0.00  0.00    +0.000 N 
ATOM     17  C   UNL     1     -42.460  -6.704 -22.676  0.00  0.00    +0.000 C 
ATOM     18  C   UNL     1     -43.882  -7.230 -22.515  0.00  0.00    +0.000 C 
ATOM     19  C   UNL     1     -44.722  -6.831 -23.727  0.00  0.00    +0.000 C 
ENDROOT
BRANCH  12  20
ATOM     20  C   UNL     1     -45.143  -8.412 -31.001  0.00  0.00    +0.000 C 
ATOM     21  C   UNL     1     -45.473  -7.443 -31.873  0.00  0.00    +0.000 C 
ATOM     22  C   UNL     1     -46.361  -7.780 -33.001  0.00  0.00    +0.000 C 
ATOM     23  O   UNL     1     -46.723  -8.970 -33.204  0.00  0.00    +0.000 OA
ATOM     24  N   UNL     1     -46.831  -6.750 -33.868  0.00  0.00    +0.000 N 
ATOM     25  C   UNL     1     -46.468  -5.384 -33.671  0.00  0.00    +0.000 C 
ATOM     26  O   UNL     1     -46.968  -4.502 -34.419  0.00  0.00    +0.000 OA
ATOM     27  N   UNL     1     -45.550  -5.020 -32.621  0.00  0.00    +0.000 N 
ATOM     28  C   UNL     1     -44.969  -6.047 -31.792  0.00  0.00    +0.000 C 
ATOM     29  O   UNL     1     -43.990  -5.765 -31.048  0.00  0.00    +0.000 OA
ATOM     30  H   UNL     1     -47.421  -6.987 -34.620  0.00  0.00    +0.000 HD
BRANCH  27  31
ATOM     31  C   UNL     1     -45.172  -3.643 -32.434  0.00  0.00    +0.000 A 
ATOM     32  C   UNL     1     -44.149  -3.091 -33.219  0.00  0.00    +0.000 A 
ATOM     33  C   UNL     1     -43.760  -1.761 -33.042  0.00  0.00    +0.000 A 
ATOM     34  C   UNL     1     -44.390  -0.971 -32.080  0.00  0.00    +0.000 A 
ATOM     35  C   UNL     1     -45.413  -1.509 -31.297  0.00  0.00    +0.000 A 
ATOM     36  C   UNL     1     -45.815  -2.845 -31.467  0.00  0.00    +0.000 A 
BRANCH  36  37
ATOM     37  O   UNL     1     -46.851  -3.389 -30.699  0.00  0.00    +0.000 OA
ATOM     38  C   UNL     1     -46.637  -3.979 -29.423  0.00  0.00    +0.000 C 
ENDBRANCH  36  37
ENDBRANCH  27  31
ENDBRANCH  12  20
TORSDOF 3
ENDMDL
MODEL 2
REMARK VINA RESULT:      -7.1      4.151      7.947
REMARK  Name = ZINC000002104886 ZINC02104886 PubChem-1759855
REMARK  3 active torsions:
REMARK  status: ('A' for Active; 'I' for Inactive)
REMARK    1  A    between atoms: C_12  and  C_20
REMARK    2  A    between atoms: N_27  and  C_31
REMARK    3  A    between atoms: C_36  and  O_37
REMARK                            x       y       z     vdW  Elec       q    Type
REMARK                         _______ _______ _______ _____ _____    ______ ____
ROOT
ATOM      1  C   UNL     1     -43.049  -0.452 -32.323  0.00  0.00    +0.000 C 
ATOM      2  C   UNL     1     -42.255  -1.617 -32.832  0.00  0.00    +0.000 A 
ATOM      3  C   UNL     1     -40.850  -1.582 -32.824  0.00  0.00    +0.000 A 
ATOM      4  C   UNL     1     -40.147  -0.471 -32.338  0.00  0.00    +0.000 A 
ATOM      5  C   UNL     1     -38.753  -0.465 -32.324  0.00  0.00    +0.000 A 
ATOM      6  C   UNL     1     -38.040  -1.570 -32.823  0.00  0.00    +0.000 A 
ATOM      7  C   UNL     1     -38.734  -2.689 -33.325  0.00  0.00    +0.000 A 
ATOM      8  C   UNL     1     -40.139  -2.699 -33.318  0.00  0.00    +0.000 A 
ATOM      9  O   UNL     1     -40.798  -3.755 -33.783  0.00  0.00    +0.000 OA
ATOM     10  C   UNL     1     -42.124  -3.830 -33.803  0.00  0.00    +0.000 A 
ATOM     11  O   UNL     1     -42.671  -4.856 -34.289  0.00  0.00    +0.000 OA
ATOM     12  C   UNL     1     -42.908  -2.771 -33.302  0.00  0.00    +0.000 A 
ATOM     13  C   UNL     1     -37.968  -3.897 -33.800  0.00  0.00    +0.000 C 
ATOM     14  C   UNL     1     -36.560  -3.528 -34.262  0.00  0.00    +0.000 C 
ATOM     15  C   UNL     1     -35.844  -2.758 -33.158  0.00  0.00    +0.000 C 
ATOM     16  N   UNL     1     -36.599  -1.556 -32.819  0.00  0.00    +0.000 N 
ATOM     17  C   UNL     1     -35.874  -0.331 -32.496  0.00  0.00    +0.000 C 
ATOM     18  C   UNL     1     -36.602   0.429 -31.392  0.00  0.00    +0.000 C 
ATOM     19  C   UNL     1     -38.024   0.759 -31.845  0.00  0.00    +0.000 C 
ENDROOT
BRANCH  12  20
ATOM     20  C   UNL     1     -44.386  -2.828 -33.345  0.00  0.00    +0.000 C 
ATOM     21  C   UNL     1     -45.183  -3.581 -32.566  0.00  0.00    +0.000 C 
ATOM     22  C   UNL     1     -46.631  -3.595 -32.843  0.00  0.00    +0.000 C 
ATOM     23  O   UNL     1     -47.128  -2.844 -33.725  0.00  0.00    +0.000 OA
ATOM     24  N   UNL     1     -47.486  -4.479 -32.119  0.00  0.00    +0.000 N 
ATOM     25  C   UNL     1     -46.973  -5.364 -31.124  0.00  0.00    +0.000 C 
ATOM     26  O   UNL     1     -47.757  -6.177 -30.564  0.00  0.00    +0.000 OA
ATOM     27  N   UNL     1     -45.575  -5.335 -30.775  0.00  0.00    +0.000 N 
ATOM     28  C   UNL     1     -44.700  -4.380 -31.410  0.00  0.00    +0.000 C 
ATOM     29  O   UNL     1     -43.547  -4.184 -30.936  0.00  0.00    +0.000 OA
ATOM     30  H   UNL     1     -48.452  -4.478 -32.311  0.00  0.00    +0.000 HD
BRANCH  27  31
ATOM     31  C   UNL     1     -45.063  -6.219 -29.760  0.00  0.00    +0.000 A 
ATOM     32  C   UNL     1     -45.151  -5.850 -28.410  0.00  0.00    +0.000 A 
ATOM     33  C   UNL     1     -44.648  -6.687 -27.411  0.00  0.00    +0.000 A 
ATOM     34  C   UNL     1     -44.052  -7.901 -27.754  0.00  0.00    +0.000 A 
ATOM     35  C   UNL     1     -43.963  -8.281 -29.095  0.00  0.00    +0.000 A 
ATOM     36  C   UNL     1     -44.468  -7.448 -30.108  0.00  0.00    +0.000 A 
BRANCH  36  37
ATOM     37  O   UNL     1     -44.399  -7.827 -31.454  0.00  0.00    +0.000 OA
ATOM     38  C   UNL     1     -43.192  -7.794 -32.203  0.00  0.00    +0.000 C 
ENDBRANCH  36  37
ENDBRANCH  27  31
ENDBRANCH  12  20
TORSDOF 3
ENDMDL
MODEL 3
REMARK VINA RESULT:      -7.0      3.785      7.864
REMARK  Name = ZINC000002104886 ZINC02104886 PubChem-1759855
REMARK  3 active torsions:
REMARK  status: ('A' for Active; 'I' for Inactive)
REMARK    1  A    between atoms: C_12  and  C_20
REMARK    2  A    between atoms: N_27  and  C_31
REMARK    3  A    between atoms: C_36  and  O_37
REMARK                            x       y       z     vdW  Elec       q    Type
REMARK                         _______ _______ _______ _____ _____    ______ ____
ROOT
ATOM      1  C   UNL     1     -42.298  -5.140 -34.298  0.00  0.00    +0.000 C 
ATOM      2  C   UNL     1     -42.316  -3.762 -33.708  0.00  0.00    +0.000 A 
ATOM      3  C   UNL     1     -41.114  -3.100 -33.405  0.00  0.00    +0.000 A 
ATOM      4  C   UNL     1     -39.868  -3.693 -33.650  0.00  0.00    +0.000 A 
ATOM      5  C   UNL     1     -38.688  -3.010 -33.358  0.00  0.00    +0.000 A 
ATOM      6  C   UNL     1     -38.743  -1.723 -32.791  0.00  0.00    +0.000 A 
ATOM      7  C   UNL     1     -39.989  -1.120 -32.529  0.00  0.00    +0.000 A 
ATOM      8  C   UNL     1     -41.175  -1.804 -32.844  0.00  0.00    +0.000 A 
ATOM      9  O   UNL     1     -42.352  -1.235 -32.607  0.00  0.00    +0.000 OA
ATOM     10  C   UNL     1     -43.510  -1.825 -32.882  0.00  0.00    +0.000 A 
ATOM     11  O   UNL     1     -44.583  -1.229 -32.598  0.00  0.00    +0.000 OA
ATOM     12  C   UNL     1     -43.538  -3.106 -33.470  0.00  0.00    +0.000 A 
ATOM     13  C   UNL     1     -40.043   0.283 -31.981  0.00  0.00    +0.000 C 
ATOM     14  C   UNL     1     -38.780   0.634 -31.199  0.00  0.00    +0.000 C 
ATOM     15  C   UNL     1     -37.552   0.374 -32.064  0.00  0.00    +0.000 C 
ATOM     16  N   UNL     1     -37.522  -1.025 -32.478  0.00  0.00    +0.000 N 
ATOM     17  C   UNL     1     -36.237  -1.714 -32.552  0.00  0.00    +0.000 C 
ATOM     18  C   UNL     1     -36.231  -2.677 -33.734  0.00  0.00    +0.000 C 
ATOM     19  C   UNL     1     -37.367  -3.688 -33.583  0.00  0.00    +0.000 C 
ENDROOT
BRANCH  12  20
ATOM     20  C   UNL     1     -44.820  -3.788 -33.756  0.00  0.00    +0.000 C 
ATOM     21  C   UNL     1     -45.461  -4.661 -32.958  0.00  0.00    +0.000 C 
ATOM     22  C   UNL     1     -46.668  -5.332 -33.472  0.00  0.00    +0.000 C 
ATOM     23  O   UNL     1     -47.150  -5.024 -34.595  0.00  0.00    +0.000 OA
ATOM     24  N   UNL     1     -47.297  -6.355 -32.701  0.00  0.00    +0.000 N 
ATOM     25  C   UNL     1     -46.781  -6.757 -31.433  0.00  0.00    +0.000 C 
ATOM     26  O   UNL     1     -47.328  -7.715 -30.824  0.00  0.00    +0.000 OA
ATOM     27  N   UNL     1     -45.642  -6.081 -30.863  0.00  0.00    +0.000 N 
ATOM     28  C   UNL     1     -45.046  -4.970 -31.564  0.00  0.00    +0.000 C 
ATOM     29  O   UNL     1     -44.221  -4.228 -30.965  0.00  0.00    +0.000 OA
ATOM     30  H   UNL     1     -48.104  -6.795 -33.053  0.00  0.00    +0.000 HD
BRANCH  27  31
ATOM     31  C   UNL     1     -45.133  -6.478 -29.576  0.00  0.00    +0.000 A 
ATOM     32  C   UNL     1     -45.710  -5.953 -28.410  0.00  0.00    +0.000 A 
ATOM     33  C   UNL     1     -45.221  -6.315 -27.152  0.00  0.00    +0.000 A 
ATOM     34  C   UNL     1     -44.152  -7.206 -27.049  0.00  0.00    +0.000 A 
ATOM     35  C   UNL     1     -43.573  -7.738 -28.203  0.00  0.00    +0.000 A 
ATOM     36  C   UNL     1     -44.058  -7.383 -29.474  0.00  0.00    +0.000 A 
BRANCH  36  37
ATOM     37  O   UNL     1     -43.496  -7.924 -30.637  0.00  0.00    +0.000 OA
ATOM     38  C   UNL     1     -43.817  -9.223 -31.115  0.00  0.00    +0.000 C 
ENDBRANCH  36  37
ENDBRANCH  27  31
ENDBRANCH  12  20
TORSDOF 3
ENDMDL
