MODEL 1
REMARK VINA RESULT:      -7.3      0.000      0.000
REMARK  Name = ZINC000031810539
REMARK  1 active torsions:
REMARK  status: ('A' for Active; 'I' for Inactive)
REMARK    1  A    between atoms: C_7  and  C_24
REMARK                            x       y       z     vdW  Elec       q    Type
REMARK                         _______ _______ _______ _____ _____    ______ ____
ROOT
ATOM      1  C   UNL     1     -46.481 -15.187 -20.955  0.00  0.00    +0.000 C 
ATOM      2  C   UNL     1     -46.013 -14.792 -22.314  0.00  0.00    +0.000 A 
ATOM      3  N   UNL     1     -46.205 -13.553 -22.797  0.00  0.00    +0.000 NA
ATOM      4  N   UNL     1     -45.770 -13.534 -24.044  0.00  0.00    +0.000 N 
ATOM      5  C   UNL     1     -45.286 -14.750 -24.379  0.00  0.00    +0.000 A 
ATOM      6  C   UNL     1     -45.392 -15.600 -23.271  0.00  0.00    +0.000 A 
ATOM      7  C   UNL     1     -45.076 -17.085 -23.165  0.00  0.00    +0.000 C 
ATOM      8  S   UNL     1     -43.597 -17.567 -24.099  0.00  0.00    +0.000 S 
ATOM      9  C   UNL     1     -44.556 -17.555 -25.622  0.00  0.00    +0.000 C 
ATOM     10  C   UNL     1     -44.353 -16.249 -26.290  0.00  0.00    +0.000 C 
ATOM     11  O   UNL     1     -43.853 -16.234 -27.445  0.00  0.00    +0.000 OA
ATOM     12  N   UNL     1     -44.709 -15.010 -25.672  0.00  0.00    +0.000 N 
ATOM     13  H   UNL     1     -44.532 -14.209 -26.216  0.00  0.00    +0.000 HD
ATOM     14  C   UNL     1     -45.814 -12.352 -24.857  0.00  0.00    +0.000 A 
ATOM     15  N   UNL     1     -45.428 -11.148 -24.337  0.00  0.00    +0.000 NA
ATOM     16  C   UNL     1     -45.486  -9.996 -25.078  0.00  0.00    +0.000 A 
ATOM     17  N   UNL     1     -45.952 -10.019 -26.363  0.00  0.00    +0.000 NA
ATOM     18  C   UNL     1     -46.350 -11.209 -26.874  0.00  0.00    +0.000 A 
ATOM     19  N   UNL     1     -46.886 -11.419 -28.083  0.00  0.00    +0.000 N 
ATOM     20  C   UNL     1     -47.157 -12.752 -28.056  0.00  0.00    +0.000 A 
ATOM     21  N   UNL     1     -46.817 -13.361 -26.886  0.00  0.00    +0.000 NA
ATOM     22  C   UNL     1     -46.299 -12.356 -26.165  0.00  0.00    +0.000 A 
ATOM     23  H   UNL     1     -47.042 -10.772 -28.808  0.00  0.00    +0.000 HD
ENDROOT
BRANCH   7  24
ATOM     24  C   UNL     1     -44.952 -17.597 -21.761  0.00  0.00    +0.000 A 
ATOM     25  C   UNL     1     -43.817 -17.264 -21.012  0.00  0.00    +0.000 A 
ATOM     26  C   UNL     1     -43.680 -17.726 -19.699  0.00  0.00    +0.000 A 
ATOM     27  C   UNL     1     -44.679 -18.522 -19.131  0.00  0.00    +0.000 A 
ATOM     28  C   UNL     1     -45.817 -18.854 -19.872  0.00  0.00    +0.000 A 
ATOM     29  F   UNL     1     -46.784 -19.623 -19.320  0.00  0.00    +0.000 F 
ATOM     30  C   UNL     1     -45.955 -18.393 -21.184  0.00  0.00    +0.000 A 
ENDBRANCH   7  24
TORSDOF 1
ENDMDL
MODEL 2
REMARK VINA RESULT:      -6.9     12.999     15.103
REMARK  Name = ZINC000031810539
REMARK  1 active torsions:
REMARK  status: ('A' for Active; 'I' for Inactive)
REMARK    1  A    between atoms: C_7  and  C_24
REMARK                            x       y       z     vdW  Elec       q    Type
REMARK                         _______ _______ _______ _____ _____    ______ ____
ROOT
ATOM      1  C   UNL     1     -47.083  -3.613 -33.675  0.00  0.00    +0.000 C 
ATOM      2  C   UNL     1     -46.403  -4.831 -34.199  0.00  0.00    +0.000 A 
ATOM      3  N   UNL     1     -46.974  -5.618 -35.126  0.00  0.00    +0.000 NA
ATOM      4  N   UNL     1     -46.181  -6.656 -35.320  0.00  0.00    +0.000 N 
ATOM      5  C   UNL     1     -45.089  -6.551 -34.532  0.00  0.00    +0.000 A 
ATOM      6  C   UNL     1     -45.169  -5.358 -33.803  0.00  0.00    +0.000 A 
ATOM      7  C   UNL     1     -44.243  -4.829 -32.717  0.00  0.00    +0.000 C 
ATOM      8  S   UNL     1     -42.491  -5.160 -33.053  0.00  0.00    +0.000 S 
ATOM      9  C   UNL     1     -42.705  -6.856 -32.490  0.00  0.00    +0.000 C 
ATOM     10  C   UNL     1     -42.926  -7.717 -33.675  0.00  0.00    +0.000 C 
ATOM     11  O   UNL     1     -42.113  -8.649 -33.903  0.00  0.00    +0.000 OA
ATOM     12  N   UNL     1     -44.031  -7.527 -34.562  0.00  0.00    +0.000 N 
ATOM     13  H   UNL     1     -44.076  -8.165 -35.310  0.00  0.00    +0.000 HD
ATOM     14  C   UNL     1     -46.487  -7.694 -36.262  0.00  0.00    +0.000 A 
ATOM     15  N   UNL     1     -46.948  -7.373 -37.509  0.00  0.00    +0.000 NA
ATOM     16  C   UNL     1     -47.277  -8.342 -38.422  0.00  0.00    +0.000 A 
ATOM     17  N   UNL     1     -47.168  -9.665 -38.100  0.00  0.00    +0.000 NA
ATOM     18  C   UNL     1     -46.726  -9.985 -36.860  0.00  0.00    +0.000 A 
ATOM     19  N   UNL     1     -46.611 -11.216 -36.346  0.00  0.00    +0.000 N 
ATOM     20  C   UNL     1     -46.197 -10.965 -35.075  0.00  0.00    +0.000 A 
ATOM     21  N   UNL     1     -46.061  -9.641 -34.789  0.00  0.00    +0.000 NA
ATOM     22  C   UNL     1     -46.394  -9.050 -35.946  0.00  0.00    +0.000 A 
ATOM     23  H   UNL     1     -46.781 -12.082 -36.780  0.00  0.00    +0.000 HD
ENDROOT
BRANCH   7  24
ATOM     24  C   UNL     1     -44.411  -3.371 -32.410  0.00  0.00    +0.000 A 
ATOM     25  C   UNL     1     -45.135  -2.993 -31.273  0.00  0.00    +0.000 A 
ATOM     26  C   UNL     1     -45.303  -1.640 -30.963  0.00  0.00    +0.000 A 
ATOM     27  C   UNL     1     -44.745  -0.659 -31.790  0.00  0.00    +0.000 A 
ATOM     28  C   UNL     1     -44.018  -1.031 -32.924  0.00  0.00    +0.000 A 
ATOM     29  F   UNL     1     -43.477  -0.081 -33.723  0.00  0.00    +0.000 F 
ATOM     30  C   UNL     1     -43.850  -2.383 -33.235  0.00  0.00    +0.000 A 
ENDBRANCH   7  24
TORSDOF 1
ENDMDL
MODEL 3
REMARK VINA RESULT:      -6.7      8.883     10.813
REMARK  Name = ZINC000031810539
REMARK  1 active torsions:
REMARK  status: ('A' for Active; 'I' for Inactive)
REMARK    1  A    between atoms: C_7  and  C_24
REMARK                            x       y       z     vdW  Elec       q    Type
REMARK                         _______ _______ _______ _____ _____    ______ ____
ROOT
ATOM      1  C   UNL     1     -47.576  -4.577 -26.195  0.00  0.00    +0.000 C 
ATOM      2  C   UNL     1     -46.913  -4.798 -27.511  0.00  0.00    +0.000 A 
ATOM      3  N   UNL     1     -46.843  -3.832 -28.442  0.00  0.00    +0.000 NA
ATOM      4  N   UNL     1     -46.286  -4.349 -29.521  0.00  0.00    +0.000 N 
ATOM      5  C   UNL     1     -45.982  -5.647 -29.303  0.00  0.00    +0.000 A 
ATOM      6  C   UNL     1     -46.342  -5.982 -27.991  0.00  0.00    +0.000 A 
ATOM      7  C   UNL     1     -46.293  -7.334 -27.295  0.00  0.00    +0.000 C 
ATOM      8  S   UNL     1     -44.828  -8.310 -27.738  0.00  0.00    +0.000 S 
ATOM      9  C   UNL     1     -45.611  -8.779 -29.289  0.00  0.00    +0.000 C 
ATOM     10  C   UNL     1     -45.124  -7.869 -30.351  0.00  0.00    +0.000 C 
ATOM     11  O   UNL     1     -44.514  -8.362 -31.334  0.00  0.00    +0.000 OA
ATOM     12  N   UNL     1     -45.328  -6.455 -30.299  0.00  0.00    +0.000 N 
ATOM     13  H   UNL     1     -44.965  -5.955 -31.065  0.00  0.00    +0.000 HD
ATOM     14  C   UNL     1     -46.048  -3.580 -30.710  0.00  0.00    +0.000 A 
ATOM     15  N   UNL     1     -45.520  -2.323 -30.617  0.00  0.00    +0.000 NA
ATOM     16  C   UNL     1     -45.308  -1.551 -31.730  0.00  0.00    +0.000 A 
ATOM     17  N   UNL     1     -45.638  -2.017 -32.972  0.00  0.00    +0.000 NA
ATOM     18  C   UNL     1     -46.175  -3.257 -33.064  0.00  0.00    +0.000 A 
ATOM     19  N   UNL     1     -46.613  -3.856 -34.178  0.00  0.00    +0.000 N 
ATOM     20  C   UNL     1     -47.106  -5.033 -33.704  0.00  0.00    +0.000 A 
ATOM     21  N   UNL     1     -46.994  -5.174 -32.354  0.00  0.00    +0.000 NA
ATOM     22  C   UNL     1     -46.391  -4.036 -31.983  0.00  0.00    +0.000 A 
ATOM     23  H   UNL     1     -46.583  -3.529 -35.105  0.00  0.00    +0.000 HD
ENDROOT
BRANCH   7  24
ATOM     24  C   UNL     1     -46.400  -7.270 -25.801  0.00  0.00    +0.000 A 
ATOM     25  C   UNL     1     -47.586  -7.684 -25.184  0.00  0.00    +0.000 A 
ATOM     26  C   UNL     1     -47.709  -7.637 -23.792  0.00  0.00    +0.000 A 
ATOM     27  C   UNL     1     -46.644  -7.178 -23.011  0.00  0.00    +0.000 A 
ATOM     28  C   UNL     1     -45.455  -6.767 -23.621  0.00  0.00    +0.000 A 
ATOM     29  F   UNL     1     -44.424  -6.324 -22.864  0.00  0.00    +0.000 F 
ATOM     30  C   UNL     1     -45.331  -6.813 -25.012  0.00  0.00    +0.000 A 
ENDBRANCH   7  24
TORSDOF 1
ENDMDL
