MODEL 1
REMARK VINA RESULT:      -7.0      0.000      0.000
REMARK  Name = ZINC000031811572
REMARK  1 active torsions:
REMARK  status: ('A' for Active; 'I' for Inactive)
REMARK    1  A    between atoms: C_7  and  C_24
REMARK                            x       y       z     vdW  Elec       q    Type
REMARK                         _______ _______ _______ _____ _____    ______ ____
ROOT
ATOM      1  C   UNL     1     -47.356  -3.902 -33.996  0.00  0.00    +0.000 C 
ATOM      2  C   UNL     1     -46.621  -5.178 -33.782  0.00  0.00    +0.000 A 
ATOM      3  N   UNL     1     -46.786  -6.268 -34.552  0.00  0.00    +0.000 NA
ATOM      4  N   UNL     1     -45.988  -7.214 -34.086  0.00  0.00    +0.000 N 
ATOM      5  C   UNL     1     -45.280  -6.738 -33.036  0.00  0.00    +0.000 A 
ATOM      6  C   UNL     1     -45.677  -5.424 -32.799  0.00  0.00    +0.000 A 
ATOM      7  C   UNL     1     -45.224  -4.414 -31.782  0.00  0.00    +0.000 C 
ATOM      8  S   UNL     1     -44.627  -5.089 -30.202  0.00  0.00    +0.000 S 
ATOM      9  C   UNL     1     -43.112  -5.727 -30.950  0.00  0.00    +0.000 C 
ATOM     10  C   UNL     1     -43.316  -7.135 -31.372  0.00  0.00    +0.000 C 
ATOM     11  O   UNL     1     -42.596  -8.026 -30.851  0.00  0.00    +0.000 OA
ATOM     12  N   UNL     1     -44.269  -7.515 -32.369  0.00  0.00    +0.000 N 
ATOM     13  H   UNL     1     -44.227  -8.459 -32.643  0.00  0.00    +0.000 HD
ATOM     14  C   UNL     1     -45.886  -8.509 -34.696  0.00  0.00    +0.000 A 
ATOM     15  N   UNL     1     -45.978  -8.635 -36.054  0.00  0.00    +0.000 NA
ATOM     16  C   UNL     1     -45.913  -9.860 -36.667  0.00  0.00    +0.000 A 
ATOM     17  N   UNL     1     -45.770 -11.000 -35.926  0.00  0.00    +0.000 NA
ATOM     18  C   UNL     1     -45.692 -10.878 -34.579  0.00  0.00    +0.000 A 
ATOM     19  N   UNL     1     -45.609 -11.876 -33.691  0.00  0.00    +0.000 N 
ATOM     20  C   UNL     1     -45.627 -11.214 -32.503  0.00  0.00    +0.000 A 
ATOM     21  N   UNL     1     -45.723  -9.861 -32.626  0.00  0.00    +0.000 NA
ATOM     22  C   UNL     1     -45.752  -9.683 -33.954  0.00  0.00    +0.000 A 
ATOM     23  H   UNL     1     -45.549 -12.845 -33.856  0.00  0.00    +0.000 HD
ENDROOT
BRANCH   7  24
ATOM     24  C   UNL     1     -44.410  -3.259 -32.315  0.00  0.00    +0.000 A 
ATOM     25  C   UNL     1     -43.484  -3.410 -33.369  0.00  0.00    +0.000 A 
ATOM     26  F   UNL     1     -43.282  -4.612 -33.964  0.00  0.00    +0.000 F 
ATOM     27  C   UNL     1     -42.752  -2.308 -33.822  0.00  0.00    +0.000 A 
ATOM     28  C   UNL     1     -42.931  -1.055 -33.236  0.00  0.00    +0.000 A 
ATOM     29  C   UNL     1     -43.844  -0.898 -32.192  0.00  0.00    +0.000 A 
ATOM     30  C   UNL     1     -44.582  -1.992 -31.732  0.00  0.00    +0.000 A 
ATOM     31  F   UNL     1     -45.464  -1.813 -30.717  0.00  0.00    +0.000 F 
ENDBRANCH   7  24
TORSDOF 1
ENDMDL
MODEL 2
REMARK VINA RESULT:      -6.8      4.698      7.138
REMARK  Name = ZINC000031811572
REMARK  1 active torsions:
REMARK  status: ('A' for Active; 'I' for Inactive)
REMARK    1  A    between atoms: C_7  and  C_24
REMARK                            x       y       z     vdW  Elec       q    Type
REMARK                         _______ _______ _______ _____ _____    ______ ____
ROOT
ATOM      1  C   UNL     1     -47.419  -4.567 -26.220  0.00  0.00    +0.000 C 
ATOM      2  C   UNL     1     -46.952  -4.793 -27.616  0.00  0.00    +0.000 A 
ATOM      3  N   UNL     1     -46.807  -3.806 -28.518  0.00  0.00    +0.000 NA
ATOM      4  N   UNL     1     -46.382  -4.353 -29.645  0.00  0.00    +0.000 N 
ATOM      5  C   UNL     1     -46.221  -5.685 -29.474  0.00  0.00    +0.000 A 
ATOM      6  C   UNL     1     -46.598  -6.010 -28.173  0.00  0.00    +0.000 A 
ATOM      7  C   UNL     1     -46.611  -7.320 -27.437  0.00  0.00    +0.000 C 
ATOM      8  S   UNL     1     -46.869  -8.803 -28.458  0.00  0.00    +0.000 S 
ATOM      9  C   UNL     1     -45.224  -8.685 -29.194  0.00  0.00    +0.000 C 
ATOM     10  C   UNL     1     -45.296  -7.912 -30.459  0.00  0.00    +0.000 C 
ATOM     11  O   UNL     1     -44.963  -8.484 -31.529  0.00  0.00    +0.000 OA
ATOM     12  N   UNL     1     -45.692  -6.538 -30.505  0.00  0.00    +0.000 N 
ATOM     13  H   UNL     1     -45.587  -6.107 -31.384  0.00  0.00    +0.000 HD
ATOM     14  C   UNL     1     -46.089  -3.578 -30.817  0.00  0.00    +0.000 A 
ATOM     15  N   UNL     1     -45.541  -2.331 -30.693  0.00  0.00    +0.000 NA
ATOM     16  C   UNL     1     -45.275  -1.554 -31.790  0.00  0.00    +0.000 A 
ATOM     17  N   UNL     1     -45.569  -2.003 -33.048  0.00  0.00    +0.000 NA
ATOM     18  C   UNL     1     -46.124  -3.232 -33.171  0.00  0.00    +0.000 A 
ATOM     19  N   UNL     1     -46.531  -3.815 -34.306  0.00  0.00    +0.000 N 
ATOM     20  C   UNL     1     -47.062  -4.985 -33.861  0.00  0.00    +0.000 A 
ATOM     21  N   UNL     1     -47.002  -5.140 -32.509  0.00  0.00    +0.000 NA
ATOM     22  C   UNL     1     -46.394  -4.017 -32.106  0.00  0.00    +0.000 A 
ATOM     23  H   UNL     1     -46.462  -3.480 -35.230  0.00  0.00    +0.000 HD
ENDROOT
BRANCH   7  24
ATOM     24  C   UNL     1     -45.571  -7.480 -26.354  0.00  0.00    +0.000 A 
ATOM     25  C   UNL     1     -44.250  -7.003 -26.498  0.00  0.00    +0.000 A 
ATOM     26  F   UNL     1     -43.850  -6.365 -27.626  0.00  0.00    +0.000 F 
ATOM     27  C   UNL     1     -43.325  -7.181 -25.466  0.00  0.00    +0.000 A 
ATOM     28  C   UNL     1     -43.698  -7.831 -24.290  0.00  0.00    +0.000 A 
ATOM     29  C   UNL     1     -45.001  -8.308 -24.141  0.00  0.00    +0.000 A 
ATOM     30  C   UNL     1     -45.935  -8.134 -25.165  0.00  0.00    +0.000 A 
ATOM     31  F   UNL     1     -47.196  -8.605 -24.995  0.00  0.00    +0.000 F 
ENDBRANCH   7  24
TORSDOF 1
ENDMDL
MODEL 3
REMARK VINA RESULT:      -6.7      4.150      7.239
REMARK  Name = ZINC000031811572
REMARK  1 active torsions:
REMARK  status: ('A' for Active; 'I' for Inactive)
REMARK    1  A    between atoms: C_7  and  C_24
REMARK                            x       y       z     vdW  Elec       q    Type
REMARK                         _______ _______ _______ _____ _____    ______ ____
ROOT
ATOM      1  C   UNL     1     -42.827  -6.988 -27.607  0.00  0.00    +0.000 C 
ATOM      2  C   UNL     1     -43.181  -6.221 -28.833  0.00  0.00    +0.000 A 
ATOM      3  N   UNL     1     -42.267  -5.712 -29.679  0.00  0.00    +0.000 NA
ATOM      4  N   UNL     1     -42.920  -5.096 -30.650  0.00  0.00    +0.000 N 
ATOM      5  C   UNL     1     -44.253  -5.227 -30.460  0.00  0.00    +0.000 A 
ATOM      6  C   UNL     1     -44.460  -5.937 -29.279  0.00  0.00    +0.000 A 
ATOM      7  C   UNL     1     -45.721  -6.382 -28.592  0.00  0.00    +0.000 C 
ATOM      8  S   UNL     1     -47.181  -5.329 -28.849  0.00  0.00    +0.000 S 
ATOM      9  C   UNL     1     -47.362  -5.854 -30.567  0.00  0.00    +0.000 C 
ATOM     10  C   UNL     1     -46.638  -4.914 -31.458  0.00  0.00    +0.000 C 
ATOM     11  O   UNL     1     -47.299  -4.279 -32.320  0.00  0.00    +0.000 OA
ATOM     12  N   UNL     1     -45.221  -4.727 -31.400  0.00  0.00    +0.000 N 
ATOM     13  H   UNL     1     -44.848  -4.167 -32.118  0.00  0.00    +0.000 HD
ATOM     14  C   UNL     1     -42.251  -4.464 -31.751  0.00  0.00    +0.000 A 
ATOM     15  N   UNL     1     -41.107  -5.011 -32.262  0.00  0.00    +0.000 NA
ATOM     16  C   UNL     1     -40.427  -4.417 -33.293  0.00  0.00    +0.000 A 
ATOM     17  N   UNL     1     -40.872  -3.242 -33.833  0.00  0.00    +0.000 NA
ATOM     18  C   UNL     1     -41.997  -2.692 -33.319  0.00  0.00    +0.000 A 
ATOM     19  N   UNL     1     -42.550  -1.525 -33.675  0.00  0.00    +0.000 N 
ATOM     20  C   UNL     1     -43.600  -1.424 -32.816  0.00  0.00    +0.000 A 
ATOM     21  N   UNL     1     -43.709  -2.470 -31.951  0.00  0.00    +0.000 NA
ATOM     22  C   UNL     1     -42.685  -3.258 -32.305  0.00  0.00    +0.000 A 
ATOM     23  H   UNL     1     -42.268  -0.899 -34.381  0.00  0.00    +0.000 HD
ENDROOT
BRANCH   7  24
ATOM     24  C   UNL     1     -46.005  -7.865 -28.629  0.00  0.00    +0.000 A 
ATOM     25  C   UNL     1     -45.719  -8.661 -29.758  0.00  0.00    +0.000 A 
ATOM     26  F   UNL     1     -45.162  -8.129 -30.874  0.00  0.00    +0.000 F 
ATOM     27  C   UNL     1     -46.007 -10.029 -29.742  0.00  0.00    +0.000 A 
ATOM     28  C   UNL     1     -46.579 -10.615 -28.612  0.00  0.00    +0.000 A 
ATOM     29  C   UNL     1     -46.866  -9.833 -27.492  0.00  0.00    +0.000 A 
ATOM     30  C   UNL     1     -46.582  -8.465 -27.497  0.00  0.00    +0.000 A 
ATOM     31  F   UNL     1     -46.870  -7.728 -26.396  0.00  0.00    +0.000 F 
ENDBRANCH   7  24
TORSDOF 1
ENDMDL
