MODEL 1
REMARK VINA RESULT:      -6.7      0.000      0.000
REMARK  Name = ZINC000008812094 PubChem-92346081
REMARK  7 active torsions:
REMARK  status: ('A' for Active; 'I' for Inactive)
REMARK    1  A    between atoms: C_1  and  S_27
REMARK    2  A    between atoms: C_11  and  C_13
REMARK    3  A    between atoms: N_15  and  C_17
REMARK    4  A    between atoms: C_17  and  C_18
REMARK    5  A    between atoms: C_18  and  C_19
REMARK    6  A    between atoms: C_19  and  N_20
REMARK    7  A    between atoms: S_27  and  N_36
REMARK                            x       y       z     vdW  Elec       q    Type
REMARK                         _______ _______ _______ _____ _____    ______ ____
ROOT
ATOM      1  C   UNL     1     -45.283  -5.091 -30.497  0.00  0.00    +0.000 A 
ATOM      2  C   UNL     1     -44.499  -5.724 -29.529  0.00  0.00    +0.000 A 
ATOM      3  C   UNL     1     -45.046  -6.080 -28.286  0.00  0.00    +0.000 A 
ATOM      4  C   UNL     1     -46.411  -5.805 -28.035  0.00  0.00    +0.000 A 
ATOM      5  C   UNL     1     -47.192  -5.175 -29.008  0.00  0.00    +0.000 A 
ATOM      6  C   UNL     1     -46.629  -4.818 -30.236  0.00  0.00    +0.000 A 
ATOM      7  N   UNL     1     -46.971  -6.155 -26.847  0.00  0.00    +0.000 N 
ATOM      8  C   UNL     1     -46.249  -6.772 -25.876  0.00  0.00    +0.000 A 
ATOM      9  O   UNL     1     -46.799  -7.083 -24.788  0.00  0.00    +0.000 OA
ATOM     10  C   UNL     1     -44.901  -7.061 -26.080  0.00  0.00    +0.000 A 
ATOM     11  C   UNL     1     -44.279  -6.726 -27.289  0.00  0.00    +0.000 A 
ATOM     12  H   UNL     1     -47.922  -5.958 -26.688  0.00  0.00    +0.000 HD
ENDROOT
BRANCH  11  13
ATOM     13  C   UNL     1     -42.830  -7.011 -27.464  0.00  0.00    +0.000 C 
ATOM     14  O   UNL     1     -41.985  -6.133 -27.141  0.00  0.00    +0.000 OA
ATOM     15  N   UNL     1     -42.348  -8.250 -27.999  0.00  0.00    +0.000 N 
ATOM     16  H   UNL     1     -41.373  -8.382 -28.036  0.00  0.00    +0.000 HD
BRANCH  15  17
ATOM     17  C   UNL     1     -43.191  -9.328 -28.492  0.00  0.00    +0.000 C 
BRANCH  17  18
ATOM     18  C   UNL     1     -43.446  -9.141 -29.977  0.00  0.00    +0.000 C 
BRANCH  18  19
ATOM     19  C   UNL     1     -44.846  -9.612 -30.334  0.00  0.00    +0.000 C 
BRANCH  19  20
ATOM     20  N   UNL     1     -45.416 -10.384 -29.241  0.00  0.00    +0.000 NA
ATOM     21  C   UNL     1     -46.668  -9.736 -28.872  0.00  0.00    +0.000 C 
ATOM     22  C   UNL     1     -46.966  -9.904 -27.379  0.00  0.00    +0.000 C 
ATOM     23  C   UNL     1     -46.593 -11.274 -26.802  0.00  0.00    +0.000 C 
ATOM     24  C   UNL     1     -46.990 -12.431 -27.709  0.00  0.00    +0.000 C 
ATOM     25  C   UNL     1     -45.865 -12.736 -28.693  0.00  0.00    +0.000 C 
ATOM     26  C   UNL     1     -45.772 -11.685 -29.795  0.00  0.00    +0.000 C 
ENDBRANCH  19  20
ENDBRANCH  18  19
ENDBRANCH  17  18
ENDBRANCH  15  17
ENDBRANCH  11  13
BRANCH   1  27
ATOM     27  S   UNL     1     -44.582  -4.649 -32.044  0.00  0.00    +0.000 S 
ATOM     28  O   UNL     1     -43.506  -5.639 -32.391  0.00  0.00    +0.000 OA
ATOM     29  O   UNL     1     -45.652  -4.680 -33.100  0.00  0.00    +0.000 OA
BRANCH  27  36
ATOM     30  C   UNL     1     -42.726  -3.271 -34.149  0.00  0.00    +0.000 C 
ATOM     31  C   UNL     1     -42.613  -2.959 -32.655  0.00  0.00    +0.000 C 
ATOM     32  C   UNL     1     -42.003  -1.571 -32.447  0.00  0.00    +0.000 C 
ATOM     33  C   UNL     1     -42.982  -0.476 -32.875  0.00  0.00    +0.000 C 
ATOM     34  C   UNL     1     -44.332  -0.660 -32.186  0.00  0.00    +0.000 C 
ATOM     35  C   UNL     1     -44.856  -2.069 -32.447  0.00  0.00    +0.000 C 
ATOM     36  N   UNL     1     -43.897  -3.051 -31.934  0.00  0.00    +0.000 NA
ENDBRANCH  27  36
ENDBRANCH   1  27
TORSDOF 7
ENDMDL
MODEL 2
REMARK VINA RESULT:      -6.7      1.672      3.424
REMARK  Name = ZINC000008812094 PubChem-92346081
REMARK  7 active torsions:
REMARK  status: ('A' for Active; 'I' for Inactive)
REMARK    1  A    between atoms: C_1  and  S_27
REMARK    2  A    between atoms: C_11  and  C_13
REMARK    3  A    between atoms: N_15  and  C_17
REMARK    4  A    between atoms: C_17  and  C_18
REMARK    5  A    between atoms: C_18  and  C_19
REMARK    6  A    between atoms: C_19  and  N_20
REMARK    7  A    between atoms: S_27  and  N_36
REMARK                            x       y       z     vdW  Elec       q    Type
REMARK                         _______ _______ _______ _____ _____    ______ ____
ROOT
ATOM      1  C   UNL     1     -44.971  -5.417 -29.634  0.00  0.00    +0.000 A 
ATOM      2  C   UNL     1     -45.500  -5.731 -28.379  0.00  0.00    +0.000 A 
ATOM      3  C   UNL     1     -44.724  -6.404 -27.423  0.00  0.00    +0.000 A 
ATOM      4  C   UNL     1     -43.388  -6.744 -27.742  0.00  0.00    +0.000 A 
ATOM      5  C   UNL     1     -42.861  -6.424 -28.997  0.00  0.00    +0.000 A 
ATOM      6  C   UNL     1     -43.652  -5.763 -29.940  0.00  0.00    +0.000 A 
ATOM      7  N   UNL     1     -42.607  -7.380 -26.829  0.00  0.00    +0.000 N 
ATOM      8  C   UNL     1     -43.078  -7.705 -25.597  0.00  0.00    +0.000 A 
ATOM      9  O   UNL     1     -42.329  -8.294 -24.775  0.00  0.00    +0.000 OA
ATOM     10  C   UNL     1     -44.389  -7.391 -25.241  0.00  0.00    +0.000 A 
ATOM     11  C   UNL     1     -45.231  -6.731 -26.144  0.00  0.00    +0.000 A 
ATOM     12  H   UNL     1     -41.680  -7.609 -27.066  0.00  0.00    +0.000 HD
ENDROOT
BRANCH  11  13
ATOM     13  C   UNL     1     -46.635  -6.443 -25.750  0.00  0.00    +0.000 C 
ATOM     14  O   UNL     1     -47.003  -5.247 -25.606  0.00  0.00    +0.000 OA
ATOM     15  N   UNL     1     -47.597  -7.481 -25.517  0.00  0.00    +0.000 N 
ATOM     16  H   UNL     1     -48.520  -7.207 -25.310  0.00  0.00    +0.000 HD
BRANCH  15  17
ATOM     17  C   UNL     1     -47.312  -8.906 -25.563  0.00  0.00    +0.000 C 
BRANCH  17  18
ATOM     18  C   UNL     1     -47.633  -9.450 -26.943  0.00  0.00    +0.000 C 
BRANCH  18  19
ATOM     19  C   UNL     1     -46.457 -10.248 -27.482  0.00  0.00    +0.000 C 
BRANCH  19  20
ATOM     20  N   UNL     1     -46.282  -9.996 -28.903  0.00  0.00    +0.000 NA
ATOM     21  C   UNL     1     -47.075  -8.816 -29.226  0.00  0.00    +0.000 C 
ATOM     22  C   UNL     1     -47.608  -8.875 -30.660  0.00  0.00    +0.000 C 
ATOM     23  C   UNL     1     -46.631  -9.465 -31.683  0.00  0.00    +0.000 C 
ATOM     24  C   UNL     1     -45.206  -8.957 -31.507  0.00  0.00    +0.000 C 
ATOM     25  C   UNL     1     -44.447  -9.850 -30.531  0.00  0.00    +0.000 C 
ATOM     26  C   UNL     1     -44.887  -9.618 -29.088  0.00  0.00    +0.000 C 
ENDBRANCH  19  20
ENDBRANCH  18  19
ENDBRANCH  17  18
ENDBRANCH  15  17
ENDBRANCH  11  13
BRANCH   1  27
ATOM     27  S   UNL     1     -45.957  -4.579 -30.819  0.00  0.00    +0.000 S 
ATOM     28  O   UNL     1     -46.545  -5.589 -31.764  0.00  0.00    +0.000 OA
ATOM     29  O   UNL     1     -47.065  -3.847 -30.113  0.00  0.00    +0.000 OA
BRANCH  27  36
ATOM     30  C   UNL     1     -46.731  -3.098 -33.461  0.00  0.00    +0.000 C 
ATOM     31  C   UNL     1     -45.280  -3.469 -33.146  0.00  0.00    +0.000 C 
ATOM     32  C   UNL     1     -44.320  -2.542 -33.893  0.00  0.00    +0.000 C 
ATOM     33  C   UNL     1     -44.366  -1.127 -33.311  0.00  0.00    +0.000 C 
ATOM     34  C   UNL     1     -44.137  -1.157 -31.802  0.00  0.00    +0.000 C 
ATOM     35  C   UNL     1     -45.135  -2.108 -31.148  0.00  0.00    +0.000 C 
ATOM     36  N   UNL     1     -44.966  -3.452 -31.704  0.00  0.00    +0.000 NA
ENDBRANCH  27  36
ENDBRANCH   1  27
TORSDOF 7
ENDMDL
MODEL 3
REMARK VINA RESULT:      -6.5      9.540     13.031
REMARK  Name = ZINC000008812094 PubChem-92346081
REMARK  7 active torsions:
REMARK  status: ('A' for Active; 'I' for Inactive)
REMARK    1  A    between atoms: C_1  and  S_27
REMARK    2  A    between atoms: C_11  and  C_13
REMARK    3  A    between atoms: N_15  and  C_17
REMARK    4  A    between atoms: C_17  and  C_18
REMARK    5  A    between atoms: C_18  and  C_19
REMARK    6  A    between atoms: C_19  and  N_20
REMARK    7  A    between atoms: S_27  and  N_36
REMARK                            x       y       z     vdW  Elec       q    Type
REMARK                         _______ _______ _______ _____ _____    ______ ____
ROOT
ATOM      1  C   UNL     1     -44.880 -15.475 -25.822  0.00  0.00    +0.000 A 
ATOM      2  C   UNL     1     -44.797 -16.855 -25.615  0.00  0.00    +0.000 A 
ATOM      3  C   UNL     1     -44.002 -17.658 -26.446  0.00  0.00    +0.000 A 
ATOM      4  C   UNL     1     -43.267 -17.046 -27.489  0.00  0.00    +0.000 A 
ATOM      5  C   UNL     1     -43.349 -15.665 -27.691  0.00  0.00    +0.000 A 
ATOM      6  C   UNL     1     -44.154 -14.882 -26.860  0.00  0.00    +0.000 A 
ATOM      7  N   UNL     1     -42.474 -17.797 -28.299  0.00  0.00    +0.000 N 
ATOM      8  C   UNL     1     -42.363 -19.141 -28.135  0.00  0.00    +0.000 A 
ATOM      9  O   UNL     1     -41.620 -19.806 -28.902  0.00  0.00    +0.000 OA
ATOM     10  C   UNL     1     -43.070 -19.785 -27.121  0.00  0.00    +0.000 A 
ATOM     11  C   UNL     1     -43.896 -19.056 -26.257  0.00  0.00    +0.000 A 
ATOM     12  H   UNL     1     -41.969 -17.357 -29.019  0.00  0.00    +0.000 HD
ENDROOT
BRANCH  11  13
ATOM     13  C   UNL     1     -44.668 -19.775 -25.210  0.00  0.00    +0.000 C 
ATOM     14  O   UNL     1     -45.870 -20.081 -25.431  0.00  0.00    +0.000 OA
ATOM     15  N   UNL     1     -44.100 -20.131 -23.942  0.00  0.00    +0.000 N 
ATOM     16  H   UNL     1     -44.661 -20.651 -23.322  0.00  0.00    +0.000 HD
BRANCH  15  17
ATOM     17  C   UNL     1     -42.758 -19.781 -23.503  0.00  0.00    +0.000 C 
BRANCH  17  18
ATOM     18  C   UNL     1     -42.506 -20.352 -22.120  0.00  0.00    +0.000 C 
BRANCH  18  19
ATOM     19  C   UNL     1     -42.569 -19.251 -21.075  0.00  0.00    +0.000 C 
BRANCH  19  20
ATOM     20  N   UNL     1     -43.949 -18.992 -20.695  0.00  0.00    +0.000 NA
ATOM     21  C   UNL     1     -44.104 -19.451 -19.321  0.00  0.00    +0.000 C 
ATOM     22  C   UNL     1     -45.526 -19.956 -19.057  0.00  0.00    +0.000 C 
ATOM     23  C   UNL     1     -46.631 -19.143 -19.740  0.00  0.00    +0.000 C 
ATOM     24  C   UNL     1     -46.413 -17.639 -19.640  0.00  0.00    +0.000 C 
ATOM     25  C   UNL     1     -45.572 -17.151 -20.815  0.00  0.00    +0.000 C 
ATOM     26  C   UNL     1     -44.105 -17.543 -20.666  0.00  0.00    +0.000 C 
ENDBRANCH  19  20
ENDBRANCH  18  19
ENDBRANCH  17  18
ENDBRANCH  15  17
ENDBRANCH  11  13
BRANCH   1  27
ATOM     27  S   UNL     1     -45.882 -14.487 -24.775  0.00  0.00    +0.000 S 
ATOM     28  O   UNL     1     -45.986 -13.107 -25.361  0.00  0.00    +0.000 OA
ATOM     29  O   UNL     1     -47.254 -15.098 -24.682  0.00  0.00    +0.000 OA
BRANCH  27  36
ATOM     30  C   UNL     1     -43.354 -12.832 -23.974  0.00  0.00    +0.000 C 
ATOM     31  C   UNL     1     -43.707 -14.146 -23.273  0.00  0.00    +0.000 C 
ATOM     32  C   UNL     1     -43.100 -14.178 -21.868  0.00  0.00    +0.000 C 
ATOM     33  C   UNL     1     -43.809 -13.184 -20.946  0.00  0.00    +0.000 C 
ATOM     34  C   UNL     1     -45.318 -13.412 -20.965  0.00  0.00    +0.000 C 
ATOM     35  C   UNL     1     -45.829 -13.365 -22.402  0.00  0.00    +0.000 C 
ATOM     36  N   UNL     1     -45.158 -14.401 -23.193  0.00  0.00    +0.000 NA
ENDBRANCH  27  36
ENDBRANCH   1  27
TORSDOF 7
ENDMDL
