MODEL 1
REMARK VINA RESULT:      -7.2      0.000      0.000
REMARK  Name = ZINC000100627416
REMARK  4 active torsions:
REMARK  status: ('A' for Active; 'I' for Inactive)
REMARK    1  A    between atoms: C_12  and  C_19
REMARK    2  A    between atoms: N_15  and  C_28
REMARK    3  A    between atoms: N_21  and  C_23
REMARK    4  A    between atoms: C_28  and  C_29
REMARK                            x       y       z     vdW  Elec       q    Type
REMARK                         _______ _______ _______ _____ _____    ______ ____
ROOT
ATOM      1  C   UNL     1     -47.472  -2.008 -26.096  0.00  0.00    +0.000 C 
ATOM      2  C   UNL     1     -47.227  -3.274 -25.345  0.00  0.00    +0.000 A 
ATOM      3  C   UNL     1     -47.180  -3.238 -23.953  0.00  0.00    +0.000 A 
ATOM      4  C   UNL     1     -46.955  -4.408 -23.234  0.00  0.00    +0.000 A 
ATOM      5  C   UNL     1     -46.779  -5.609 -23.922  0.00  0.00    +0.000 A 
ATOM      6  N   UNL     1     -46.824  -5.651 -25.286  0.00  0.00    +0.000 N 
ATOM      7  C   UNL     1     -47.045  -4.499 -26.009  0.00  0.00    +0.000 A 
ATOM      8  N   UNL     1     -47.091  -4.546 -27.367  0.00  0.00    +0.000 NA
ATOM      9  C   UNL     1     -46.929  -5.709 -28.051  0.00  0.00    +0.000 A 
ATOM     10  C   UNL     1     -46.693  -6.892 -27.336  0.00  0.00    +0.000 A 
ATOM     11  C   UNL     1     -46.507  -8.082 -28.034  0.00  0.00    +0.000 A 
ATOM     12  C   UNL     1     -46.543  -8.110 -29.430  0.00  0.00    +0.000 A 
ATOM     13  C   UNL     1     -46.776  -6.894 -30.121  0.00  0.00    +0.000 A 
ATOM     14  N   UNL     1     -46.767  -6.872 -31.417  0.00  0.00    +0.000 NA
ATOM     15  N   UNL     1     -46.987  -5.729 -29.421  0.00  0.00    +0.000 N 
ATOM     16  C   UNL     1     -46.646  -6.844 -25.936  0.00  0.00    +0.000 A 
ATOM     17  O   UNL     1     -46.439  -7.905 -25.279  0.00  0.00    +0.000 OA
ATOM     18  H   UNL     1     -46.616  -7.703 -31.922  0.00  0.00    +0.000 HD
ENDROOT
BRANCH  12  19
ATOM     19  C   UNL     1     -46.331  -9.417 -30.105  0.00  0.00    +0.000 C 
ATOM     20  O   UNL     1     -46.903  -9.648 -31.207  0.00  0.00    +0.000 OA
ATOM     21  N   UNL     1     -45.476 -10.416 -29.537  0.00  0.00    +0.000 N 
ATOM     22  H   UNL     1     -45.011 -10.212 -28.694  0.00  0.00    +0.000 HD
BRANCH  21  23
ATOM     23  C   UNL     1     -45.265 -11.718 -30.153  0.00  0.00    +0.000 C 
ATOM     24  C   UNL     1     -46.320 -12.703 -29.672  0.00  0.00    +0.000 C 
ATOM     25  C   UNL     1     -45.593 -13.772 -28.884  0.00  0.00    +0.000 C 
ATOM     26  C   UNL     1     -44.160 -13.716 -29.357  0.00  0.00    +0.000 C 
ATOM     27  C   UNL     1     -43.921 -12.268 -29.717  0.00  0.00    +0.000 C 
ENDBRANCH  21  23
ENDBRANCH  12  19
BRANCH  15  28
ATOM     28  C   UNL     1     -47.259  -4.478 -30.147  0.00  0.00    +0.000 C 
BRANCH  28  29
ATOM     29  C   UNL     1     -45.978  -3.697 -30.461  0.00  0.00    +0.000 C 
ATOM     30  C   UNL     1     -46.152  -2.779 -31.651  0.00  0.00    +0.000 C 
ATOM     31  C   UNL     1     -44.939  -3.032 -32.489  0.00  0.00    +0.000 C 
ATOM     32  C   UNL     1     -44.070  -3.891 -31.603  0.00  0.00    +0.000 C 
ATOM     33  O   UNL     1     -44.898  -4.563 -30.694  0.00  0.00    +0.000 OA
ENDBRANCH  28  29
ENDBRANCH  15  28
TORSDOF 4
ENDMDL
MODEL 2
REMARK VINA RESULT:      -6.9      9.932     13.594
REMARK  Name = ZINC000100627416
REMARK  4 active torsions:
REMARK  status: ('A' for Active; 'I' for Inactive)
REMARK    1  A    between atoms: C_12  and  C_19
REMARK    2  A    between atoms: N_15  and  C_28
REMARK    3  A    between atoms: N_21  and  C_23
REMARK    4  A    between atoms: C_28  and  C_29
REMARK                            x       y       z     vdW  Elec       q    Type
REMARK                         _______ _______ _______ _____ _____    ______ ____
ROOT
ATOM      1  C   UNL     1     -45.951 -18.071 -19.896  0.00  0.00    +0.000 C 
ATOM      2  C   UNL     1     -44.692 -18.871 -19.885  0.00  0.00    +0.000 A 
ATOM      3  C   UNL     1     -44.188 -19.323 -18.668  0.00  0.00    +0.000 A 
ATOM      4  C   UNL     1     -43.015 -20.073 -18.636  0.00  0.00    +0.000 A 
ATOM      5  C   UNL     1     -42.358 -20.363 -19.831  0.00  0.00    +0.000 A 
ATOM      6  N   UNL     1     -42.848 -19.923 -21.028  0.00  0.00    +0.000 N 
ATOM      7  C   UNL     1     -44.006 -19.180 -21.072  0.00  0.00    +0.000 A 
ATOM      8  N   UNL     1     -44.492 -18.745 -22.266  0.00  0.00    +0.000 NA
ATOM      9  C   UNL     1     -43.867 -19.026 -23.440  0.00  0.00    +0.000 A 
ATOM     10  C   UNL     1     -42.680 -19.774 -23.417  0.00  0.00    +0.000 A 
ATOM     11  C   UNL     1     -42.028 -20.047 -24.616  0.00  0.00    +0.000 A 
ATOM     12  C   UNL     1     -42.531 -19.580 -25.832  0.00  0.00    +0.000 A 
ATOM     13  C   UNL     1     -43.729 -18.821 -25.817  0.00  0.00    +0.000 A 
ATOM     14  N   UNL     1     -44.200 -18.330 -26.920  0.00  0.00    +0.000 NA
ATOM     15  N   UNL     1     -44.381 -18.581 -24.630  0.00  0.00    +0.000 N 
ATOM     16  C   UNL     1     -42.180 -20.222 -22.187  0.00  0.00    +0.000 A 
ATOM     17  O   UNL     1     -41.113 -20.901 -22.153  0.00  0.00    +0.000 OA
ATOM     18  H   UNL     1     -43.736 -18.499 -27.771  0.00  0.00    +0.000 HD
ENDROOT
BRANCH  12  19
ATOM     19  C   UNL     1     -41.776 -19.908 -27.070  0.00  0.00    +0.000 C 
ATOM     20  O   UNL     1     -40.517 -19.812 -27.074  0.00  0.00    +0.000 OA
ATOM     21  N   UNL     1     -42.449 -20.347 -28.256  0.00  0.00    +0.000 N 
ATOM     22  H   UNL     1     -43.428 -20.448 -28.230  0.00  0.00    +0.000 HD
BRANCH  21  23
ATOM     23  C   UNL     1     -41.748 -20.650 -29.495  0.00  0.00    +0.000 C 
ATOM     24  C   UNL     1     -42.162 -19.673 -30.585  0.00  0.00    +0.000 C 
ATOM     25  C   UNL     1     -42.877 -20.480 -31.647  0.00  0.00    +0.000 C 
ATOM     26  C   UNL     1     -42.410 -21.903 -31.455  0.00  0.00    +0.000 C 
ATOM     27  C   UNL     1     -42.147 -22.032 -29.972  0.00  0.00    +0.000 C 
ENDBRANCH  21  23
ENDBRANCH  12  19
BRANCH  15  28
ATOM     28  C   UNL     1     -45.640 -17.819 -24.628  0.00  0.00    +0.000 C 
BRANCH  28  29
ATOM     29  C   UNL     1     -45.421 -16.333 -24.325  0.00  0.00    +0.000 C 
ATOM     30  C   UNL     1     -46.630 -15.497 -24.685  0.00  0.00    +0.000 C 
ATOM     31  C   UNL     1     -46.061 -14.337 -25.440  0.00  0.00    +0.000 C 
ATOM     32  C   UNL     1     -44.572 -14.486 -25.249  0.00  0.00    +0.000 C 
ATOM     33  O   UNL     1     -44.293 -15.837 -25.000  0.00  0.00    +0.000 OA
ENDBRANCH  28  29
ENDBRANCH  15  28
TORSDOF 4
ENDMDL
MODEL 3
REMARK VINA RESULT:      -6.8      3.548      4.617
REMARK  Name = ZINC000100627416
REMARK  4 active torsions:
REMARK  status: ('A' for Active; 'I' for Inactive)
REMARK    1  A    between atoms: C_12  and  C_19
REMARK    2  A    between atoms: N_15  and  C_28
REMARK    3  A    between atoms: N_21  and  C_23
REMARK    4  A    between atoms: C_28  and  C_29
REMARK                            x       y       z     vdW  Elec       q    Type
REMARK                         _______ _______ _______ _____ _____    ______ ____
ROOT
ATOM      1  C   UNL     1     -47.025  -3.804 -27.261  0.00  0.00    +0.000 C 
ATOM      2  C   UNL     1     -46.790  -5.263 -27.061  0.00  0.00    +0.000 A 
ATOM      3  C   UNL     1     -46.696  -5.762 -25.763  0.00  0.00    +0.000 A 
ATOM      4  C   UNL     1     -46.479  -7.122 -25.555  0.00  0.00    +0.000 A 
ATOM      5  C   UNL     1     -46.359  -7.970 -26.655  0.00  0.00    +0.000 A 
ATOM      6  N   UNL     1     -46.450  -7.487 -27.929  0.00  0.00    +0.000 N 
ATOM      7  C   UNL     1     -46.664  -6.144 -28.148  0.00  0.00    +0.000 A 
ATOM      8  N   UNL     1     -46.757  -5.667 -29.419  0.00  0.00    +0.000 NA
ATOM      9  C   UNL     1     -46.649  -6.483 -30.501  0.00  0.00    +0.000 A 
ATOM     10  C   UNL     1     -46.422  -7.853 -30.301  0.00  0.00    +0.000 A 
ATOM     11  C   UNL     1     -46.292  -8.687 -31.407  0.00  0.00    +0.000 A 
ATOM     12  C   UNL     1     -46.375  -8.180 -32.706  0.00  0.00    +0.000 A 
ATOM     13  C   UNL     1     -46.597  -6.789 -32.870  0.00  0.00    +0.000 A 
ATOM     14  N   UNL     1     -46.631  -6.273 -34.059  0.00  0.00    +0.000 NA
ATOM     15  N   UNL     1     -46.753  -5.977 -31.771  0.00  0.00    +0.000 N 
ATOM     16  C   UNL     1     -46.327  -8.344 -28.991  0.00  0.00    +0.000 A 
ATOM     17  O   UNL     1     -46.127  -9.578 -28.798  0.00  0.00    +0.000 OA
ATOM     18  H   UNL     1     -46.520  -6.850 -34.849  0.00  0.00    +0.000 HD
ENDROOT
BRANCH  12  19
ATOM     19  C   UNL     1     -46.221  -9.132 -33.836  0.00  0.00    +0.000 C 
ATOM     20  O   UNL     1     -45.797 -10.300 -33.612  0.00  0.00    +0.000 OA
ATOM     21  N   UNL     1     -46.560  -8.755 -35.176  0.00  0.00    +0.000 N 
ATOM     22  H   UNL     1     -46.919  -7.852 -35.333  0.00  0.00    +0.000 HD
BRANCH  21  23
ATOM     23  C   UNL     1     -46.397  -9.648 -36.313  0.00  0.00    +0.000 C 
ATOM     24  C   UNL     1     -45.575  -8.972 -37.399  0.00  0.00    +0.000 C 
ATOM     25  C   UNL     1     -46.488  -8.801 -38.596  0.00  0.00    +0.000 C 
ATOM     26  C   UNL     1     -47.588  -9.819 -38.411  0.00  0.00    +0.000 C 
ATOM     27  C   UNL     1     -47.756  -9.948 -36.914  0.00  0.00    +0.000 C 
ENDBRANCH  21  23
ENDBRANCH  12  19
BRANCH  15  28
ATOM     28  C   UNL     1     -47.014  -4.541 -31.953  0.00  0.00    +0.000 C 
BRANCH  28  29
ATOM     29  C   UNL     1     -45.727  -3.736 -32.159  0.00  0.00    +0.000 C 
ATOM     30  C   UNL     1     -45.562  -2.653 -31.114  0.00  0.00    +0.000 C 
ATOM     31  C   UNL     1     -45.191  -1.437 -31.904  0.00  0.00    +0.000 C 
ATOM     32  C   UNL     1     -44.950  -1.976 -33.292  0.00  0.00    +0.000 C 
ATOM     33  O   UNL     1     -45.687  -3.158 -33.439  0.00  0.00    +0.000 OA
ENDBRANCH  28  29
ENDBRANCH  15  28
TORSDOF 4
ENDMDL
