MODEL 1
REMARK VINA RESULT:      -7.0      0.000      0.000
REMARK  Name = ZINC000009034026 ZINC09034026 PubChem-40911175
REMARK  5 active torsions:
REMARK  status: ('A' for Active; 'I' for Inactive)
REMARK    1  A    between atoms: N_1  and  C_16
REMARK    2  A    between atoms: C_2  and  C_21
REMARK    3  A    between atoms: C_7  and  O_18
REMARK    4  A    between atoms: C_12  and  O_19
REMARK    5  A    between atoms: N_23  and  C_25
REMARK                            x       y       z     vdW  Elec       q    Type
REMARK                         _______ _______ _______ _____ _____    ______ ____
ROOT
ATOM      1  N   UNL     1     -42.771 -18.889 -26.999  0.00  0.00    +0.000 N 
ATOM      2  C   UNL     1     -41.998 -17.773 -26.467  0.00  0.00    +0.000 C 
ATOM      3  C   UNL     1     -40.739 -17.667 -27.343  0.00  0.00    +0.000 C 
ATOM      4  C   UNL     1     -40.787 -18.801 -28.371  0.00  0.00    +0.000 C 
ATOM      5  C   UNL     1     -42.060 -19.482 -28.067  0.00  0.00    +0.000 C 
ATOM      6  O   UNL     1     -42.470 -20.500 -28.684  0.00  0.00    +0.000 OA
ENDROOT
BRANCH   1  16
ATOM      7  C   UNL     1     -43.585 -19.650 -22.065  0.00  0.00    +0.000 A 
ATOM      8  C   UNL     1     -42.658 -20.411 -22.818  0.00  0.00    +0.000 A 
ATOM      9  C   UNL     1     -42.691 -20.424 -24.219  0.00  0.00    +0.000 A 
ATOM     10  C   UNL     1     -43.660 -19.661 -24.861  0.00  0.00    +0.000 A 
ATOM     11  C   UNL     1     -44.572 -18.925 -24.143  0.00  0.00    +0.000 A 
ATOM     12  C   UNL     1     -44.575 -18.885 -22.744  0.00  0.00    +0.000 A 
ATOM     13  C   UNL     1     -45.440 -18.298 -25.109  0.00  0.00    +0.000 C 
ATOM     14  O   UNL     1     -46.394 -17.518 -24.855  0.00  0.00    +0.000 OA
ATOM     15  O   UNL     1     -45.056 -18.664 -26.390  0.00  0.00    +0.000 OA
ATOM     16  C   UNL     1     -43.911 -19.523 -26.337  0.00  0.00    +0.000 C 
BRANCH   7  18
ATOM     17  C   UNL     1     -42.466 -19.040 -19.939  0.00  0.00    +0.000 C 
ATOM     18  O   UNL     1     -43.522 -19.655 -20.668  0.00  0.00    +0.000 OA
ENDBRANCH   7  18
BRANCH  12  19
ATOM     19  O   UNL     1     -45.547 -18.104 -22.099  0.00  0.00    +0.000 OA
ATOM     20  C   UNL     1     -45.320 -16.805 -21.570  0.00  0.00    +0.000 C 
ENDBRANCH  12  19
ENDBRANCH   1  16
BRANCH   2  21
ATOM     21  C   UNL     1     -42.774 -16.496 -26.545  0.00  0.00    +0.000 C 
ATOM     22  O   UNL     1     -42.566 -15.600 -25.683  0.00  0.00    +0.000 OA
ATOM     23  N   UNL     1     -43.743 -16.308 -27.588  0.00  0.00    +0.000 N 
ATOM     24  H   UNL     1     -43.900 -17.068 -28.192  0.00  0.00    +0.000 HD
BRANCH  23  25
ATOM     25  C   UNL     1     -44.502 -15.117 -27.833  0.00  0.00    +0.000 A 
ATOM     26  C   UNL     1     -45.432 -14.697 -26.871  0.00  0.00    +0.000 A 
ATOM     27  C   UNL     1     -46.180 -13.531 -27.068  0.00  0.00    +0.000 A 
ATOM     28  C   UNL     1     -46.005 -12.782 -28.236  0.00  0.00    +0.000 A 
ATOM     29  C   UNL     1     -45.068 -13.188 -29.197  0.00  0.00    +0.000 A 
ATOM     30  C   UNL     1     -44.330 -14.358 -29.003  0.00  0.00    +0.000 A 
ATOM     31  O   UNL     1     -44.877 -12.402 -30.336  0.00  0.00    +0.000 OA
ATOM     32  C   UNL     1     -45.376 -11.063 -30.391  0.00  0.00    +0.000 C 
ATOM     33  C   UNL     1     -46.763 -10.993 -29.748  0.00  0.00    +0.000 C 
ATOM     34  O   UNL     1     -46.744 -11.616 -28.459  0.00  0.00    +0.000 OA
ENDBRANCH  23  25
ENDBRANCH   2  21
TORSDOF 5
ENDMDL
MODEL 2
REMARK VINA RESULT:      -6.8      1.827      2.553
REMARK  Name = ZINC000009034026 ZINC09034026 PubChem-40911175
REMARK  5 active torsions:
REMARK  status: ('A' for Active; 'I' for Inactive)
REMARK    1  A    between atoms: N_1  and  C_16
REMARK    2  A    between atoms: C_2  and  C_21
REMARK    3  A    between atoms: C_7  and  O_18
REMARK    4  A    between atoms: C_12  and  O_19
REMARK    5  A    between atoms: N_23  and  C_25
REMARK                            x       y       z     vdW  Elec       q    Type
REMARK                         _______ _______ _______ _____ _____    ______ ____
ROOT
ATOM      1  N   UNL     1     -44.654 -17.509 -25.489  0.00  0.00    +0.000 N 
ATOM      2  C   UNL     1     -43.515 -16.604 -25.589  0.00  0.00    +0.000 C 
ATOM      3  C   UNL     1     -42.460 -17.335 -26.437  0.00  0.00    +0.000 C 
ATOM      4  C   UNL     1     -43.013 -18.722 -26.779  0.00  0.00    +0.000 C 
ATOM      5  C   UNL     1     -44.347 -18.720 -26.149  0.00  0.00    +0.000 C 
ATOM      6  O   UNL     1     -45.133 -19.703 -26.181  0.00  0.00    +0.000 OA
ENDROOT
BRANCH   1  16
ATOM      7  C   UNL     1     -44.724 -17.693 -20.435  0.00  0.00    +0.000 A 
ATOM      8  C   UNL     1     -44.591 -18.847 -21.244  0.00  0.00    +0.000 A 
ATOM      9  C   UNL     1     -44.912 -18.823 -22.609  0.00  0.00    +0.000 A 
ATOM     10  C   UNL     1     -45.364 -17.627 -23.157  0.00  0.00    +0.000 A 
ATOM     11  C   UNL     1     -45.506 -16.502 -22.381  0.00  0.00    +0.000 A 
ATOM     12  C   UNL     1     -45.198 -16.483 -21.016  0.00  0.00    +0.000 A 
ATOM     13  C   UNL     1     -46.023 -15.472 -23.248  0.00  0.00    +0.000 C 
ATOM     14  O   UNL     1     -46.268 -14.281 -22.923  0.00  0.00    +0.000 OA
ATOM     15  O   UNL     1     -46.197 -15.980 -24.526  0.00  0.00    +0.000 OA
ATOM     16  C   UNL     1     -45.784 -17.351 -24.574  0.00  0.00    +0.000 C 
BRANCH   7  18
ATOM     17  C   UNL     1     -43.090 -17.443 -18.588  0.00  0.00    +0.000 C 
ATOM     18  O   UNL     1     -44.390 -17.749 -19.078  0.00  0.00    +0.000 OA
ENDBRANCH   7  18
BRANCH  12  19
ATOM     19  O   UNL     1     -45.375 -15.285 -20.306  0.00  0.00    +0.000 OA
ATOM     20  C   UNL     1     -46.512 -14.975 -19.513  0.00  0.00    +0.000 C 
ENDBRANCH  12  19
ENDBRANCH   1  16
BRANCH   2  21
ATOM     21  C   UNL     1     -43.901 -15.325 -26.261  0.00  0.00    +0.000 C 
ATOM     22  O   UNL     1     -43.373 -14.247 -25.874  0.00  0.00    +0.000 OA
ATOM     23  N   UNL     1     -44.865 -15.335 -27.325  0.00  0.00    +0.000 N 
ATOM     24  H   UNL     1     -45.283 -16.200 -27.538  0.00  0.00    +0.000 HD
BRANCH  23  25
ATOM     25  C   UNL     1     -45.274 -14.206 -28.107  0.00  0.00    +0.000 A 
ATOM     26  C   UNL     1     -46.474 -13.557 -27.782  0.00  0.00    +0.000 A 
ATOM     27  C   UNL     1     -46.898 -12.442 -28.515  0.00  0.00    +0.000 A 
ATOM     28  C   UNL     1     -46.124 -11.975 -29.581  0.00  0.00    +0.000 A 
ATOM     29  C   UNL     1     -44.917 -12.611 -29.904  0.00  0.00    +0.000 A 
ATOM     30  C   UNL     1     -44.500 -13.730 -29.180  0.00  0.00    +0.000 A 
ATOM     31  O   UNL     1     -44.137 -12.102 -30.946  0.00  0.00    +0.000 OA
ATOM     32  C   UNL     1     -44.382 -10.795 -31.470  0.00  0.00    +0.000 C 
ATOM     33  C   UNL     1     -45.888 -10.544 -31.571  0.00  0.00    +0.000 C 
ATOM     34  O   UNL     1     -46.528 -10.867 -30.331  0.00  0.00    +0.000 OA
ENDBRANCH  23  25
ENDBRANCH   2  21
TORSDOF 5
ENDMDL
MODEL 3
REMARK VINA RESULT:      -6.7      9.706     13.928
REMARK  Name = ZINC000009034026 ZINC09034026 PubChem-40911175
REMARK  5 active torsions:
REMARK  status: ('A' for Active; 'I' for Inactive)
REMARK    1  A    between atoms: N_1  and  C_16
REMARK    2  A    between atoms: C_2  and  C_21
REMARK    3  A    between atoms: C_7  and  O_18
REMARK    4  A    between atoms: C_12  and  O_19
REMARK    5  A    between atoms: N_23  and  C_25
REMARK                            x       y       z     vdW  Elec       q    Type
REMARK                         _______ _______ _______ _____ _____    ______ ____
ROOT
ATOM      1  N   UNL     1     -45.454  -6.423 -34.034  0.00  0.00    +0.000 N 
ATOM      2  C   UNL     1     -44.210  -6.805 -33.378  0.00  0.00    +0.000 C 
ATOM      3  C   UNL     1     -43.332  -7.449 -34.464  0.00  0.00    +0.000 C 
ATOM      4  C   UNL     1     -44.141  -7.475 -35.765  0.00  0.00    +0.000 C 
ATOM      5  C   UNL     1     -45.414  -6.832 -35.387  0.00  0.00    +0.000 C 
ATOM      6  O   UNL     1     -46.377  -6.674 -36.182  0.00  0.00    +0.000 OA
ENDROOT
BRANCH   1  16
ATOM      7  C   UNL     1     -47.419  -8.111 -29.690  0.00  0.00    +0.000 A 
ATOM      8  C   UNL     1     -47.465  -8.854 -30.894  0.00  0.00    +0.000 A 
ATOM      9  C   UNL     1     -47.231  -8.247 -32.136  0.00  0.00    +0.000 A 
ATOM     10  C   UNL     1     -46.947  -6.886 -32.159  0.00  0.00    +0.000 A 
ATOM     11  C   UNL     1     -46.908  -6.151 -30.999  0.00  0.00    +0.000 A 
ATOM     12  C   UNL     1     -47.135  -6.716 -29.740  0.00  0.00    +0.000 A 
ATOM     13  C   UNL     1     -46.628  -4.791 -31.388  0.00  0.00    +0.000 C 
ATOM     14  O   UNL     1     -46.487  -3.809 -30.612  0.00  0.00    +0.000 OA
ATOM     15  O   UNL     1     -46.511  -4.713 -32.768  0.00  0.00    +0.000 OA
ATOM     16  C   UNL     1     -46.680  -6.010 -33.352  0.00  0.00    +0.000 C 
BRANCH   7  18
ATOM     17  C   UNL     1     -46.622  -9.387 -27.720  0.00  0.00    +0.000 C 
ATOM     18  O   UNL     1     -47.650  -8.748 -28.466  0.00  0.00    +0.000 OA
ENDBRANCH   7  18
BRANCH  12  19
ATOM     19  O   UNL     1     -47.074  -5.884 -28.610  0.00  0.00    +0.000 OA
ATOM     20  C   UNL     1     -45.936  -5.737 -27.774  0.00  0.00    +0.000 C 
ENDBRANCH  12  19
ENDBRANCH   1  16
BRANCH   2  21
ATOM     21  C   UNL     1     -43.511  -5.609 -32.813  0.00  0.00    +0.000 C 
ATOM     22  O   UNL     1     -42.962  -5.699 -31.681  0.00  0.00    +0.000 OA
ATOM     23  N   UNL     1     -43.478  -4.379 -33.554  0.00  0.00    +0.000 N 
ATOM     24  H   UNL     1     -43.976  -4.358 -34.403  0.00  0.00    +0.000 HD
BRANCH  23  25
ATOM     25  C   UNL     1     -42.787  -3.182 -33.177  0.00  0.00    +0.000 A 
ATOM     26  C   UNL     1     -43.529  -2.102 -32.676  0.00  0.00    +0.000 A 
ATOM     27  C   UNL     1     -42.887  -0.922 -32.283  0.00  0.00    +0.000 A 
ATOM     28  C   UNL     1     -41.498  -0.815 -32.397  0.00  0.00    +0.000 A 
ATOM     29  C   UNL     1     -40.748  -1.895 -32.884  0.00  0.00    +0.000 A 
ATOM     30  C   UNL     1     -41.390  -3.068 -33.286  0.00  0.00    +0.000 A 
ATOM     31  O   UNL     1     -39.356  -1.784 -32.949  0.00  0.00    +0.000 OA
ATOM     32  C   UNL     1     -38.675  -0.738 -32.252  0.00  0.00    +0.000 C 
ATOM     33  C   UNL     1     -39.462   0.569 -32.367  0.00  0.00    +0.000 C 
ATOM     34  O   UNL     1     -40.833   0.355 -32.016  0.00  0.00    +0.000 OA
ENDBRANCH  23  25
ENDBRANCH   2  21
TORSDOF 5
ENDMDL
