MODEL 1
REMARK VINA RESULT:      -7.4      0.000      0.000
REMARK  Name = ZINC000032899841 ZINC32899841 PubChem-40135872
REMARK  6 active torsions:
REMARK  status: ('A' for Active; 'I' for Inactive)
REMARK    1  A    between atoms: C_1  and  C_19
REMARK    2  A    between atoms: C_12  and  C_15
REMARK    3  A    between atoms: C_19  and  O_21
REMARK    4  A    between atoms: O_21  and  C_22
REMARK    5  A    between atoms: C_22  and  C_25
REMARK    6  A    between atoms: C_25  and  N_26
REMARK                            x       y       z     vdW  Elec       q    Type
REMARK                         _______ _______ _______ _____ _____    ______ ____
ROOT
ATOM      1  C   UNL     1     -43.267  -4.652 -33.409  0.00  0.00    +0.000 C 
ATOM      2  O   UNL     1     -42.416  -4.811 -34.324  0.00  0.00    +0.000 OA
ATOM      3  N   UNL     1     -43.264  -3.445 -32.609  0.00  0.00    +0.000 N 
ATOM      4  C   UNL     1     -44.401  -3.187 -31.711  0.00  0.00    +0.000 C 
ATOM      5  C   UNL     1     -44.687  -1.724 -31.583  0.00  0.00    +0.000 C 
ATOM      6  O   UNL     1     -45.840  -1.336 -31.266  0.00  0.00    +0.000 OA
ATOM      7  N   UNL     1     -43.631  -0.775 -31.734  0.00  0.00    +0.000 N 
ATOM      8  C   UNL     1     -42.343  -1.194 -32.178  0.00  0.00    +0.000 A 
ATOM      9  C   UNL     1     -42.148  -2.518 -32.617  0.00  0.00    +0.000 A 
ATOM     10  C   UNL     1     -40.872  -2.905 -33.056  0.00  0.00    +0.000 A 
ATOM     11  C   UNL     1     -39.817  -1.992 -33.066  0.00  0.00    +0.000 A 
ATOM     12  C   UNL     1     -40.013  -0.676 -32.624  0.00  0.00    +0.000 A 
ATOM     13  C   UNL     1     -41.286  -0.280 -32.196  0.00  0.00    +0.000 A 
ATOM     14  H   UNL     1     -43.793   0.175 -31.531  0.00  0.00    +0.000 HD
ENDROOT
BRANCH  12  15
ATOM     15  C   UNL     1     -38.896   0.326 -32.687  0.00  0.00    +0.000 C 
ATOM     16  F   UNL     1     -37.804  -0.243 -33.317  0.00  0.00    +0.000 F 
ATOM     17  F   UNL     1     -39.298   1.444 -33.397  0.00  0.00    +0.000 F 
ATOM     18  F   UNL     1     -38.525   0.724 -31.414  0.00  0.00    +0.000 F 
ENDBRANCH  12  15
BRANCH   1  19
ATOM     19  C   UNL     1     -44.289  -5.733 -33.225  0.00  0.00    +0.000 C 
ATOM     20  C   UNL     1     -44.198  -6.773 -34.328  0.00  0.00    +0.000 C 
BRANCH  19  21
ATOM     21  O   UNL     1     -44.147  -6.338 -31.946  0.00  0.00    +0.000 OA
BRANCH  21  22
ATOM     22  C   UNL     1     -45.053  -7.288 -31.467  0.00  0.00    +0.000 C 
ATOM     23  O   UNL     1     -44.650  -8.397 -31.021  0.00  0.00    +0.000 OA
BRANCH  22  25
ATOM     24  C   UNL     1     -47.329  -8.232 -31.111  0.00  0.00    +0.000 C 
ATOM     25  C   UNL     1     -46.519  -7.010 -31.512  0.00  0.00    +0.000 C 
BRANCH  25  26
ATOM     26  N   UNL     1     -46.862  -5.850 -30.688  0.00  0.00    +0.000 N 
ATOM     27  C   UNL     1     -46.768  -5.752 -29.352  0.00  0.00    +0.000 A 
ATOM     28  C   UNL     1     -46.312  -6.696 -28.432  0.00  0.00    +0.000 A 
ATOM     29  C   UNL     1     -46.343  -6.334 -27.072  0.00  0.00    +0.000 A 
ATOM     30  C   UNL     1     -46.821  -5.065 -26.675  0.00  0.00    +0.000 A 
ATOM     31  C   UNL     1     -47.278  -4.137 -27.629  0.00  0.00    +0.000 A 
ATOM     32  C   UNL     1     -47.236  -4.526 -28.964  0.00  0.00    +0.000 A 
ATOM     33  O   UNL     1     -47.618  -3.854 -30.024  0.00  0.00    +0.000 OA
ATOM     34  C   UNL     1     -47.396  -4.655 -31.053  0.00  0.00    +0.000 A 
ATOM     35  O   UNL     1     -47.663  -4.339 -32.243  0.00  0.00    +0.000 OA
ENDBRANCH  25  26
ENDBRANCH  22  25
ENDBRANCH  21  22
ENDBRANCH  19  21
ENDBRANCH   1  19
TORSDOF 6
ENDMDL
MODEL 2
REMARK VINA RESULT:      -7.0      5.704      8.628
REMARK  Name = ZINC000032899841 ZINC32899841 PubChem-40135872
REMARK  6 active torsions:
REMARK  status: ('A' for Active; 'I' for Inactive)
REMARK    1  A    between atoms: C_1  and  C_19
REMARK    2  A    between atoms: C_12  and  C_15
REMARK    3  A    between atoms: C_19  and  O_21
REMARK    4  A    between atoms: O_21  and  C_22
REMARK    5  A    between atoms: C_22  and  C_25
REMARK    6  A    between atoms: C_25  and  N_26
REMARK                            x       y       z     vdW  Elec       q    Type
REMARK                         _______ _______ _______ _____ _____    ______ ____
ROOT
ATOM      1  C   UNL     1     -44.329  -7.590 -30.411  0.00  0.00    +0.000 C 
ATOM      2  O   UNL     1     -43.439  -8.377 -30.829  0.00  0.00    +0.000 OA
ATOM      3  N   UNL     1     -45.226  -7.996 -29.349  0.00  0.00    +0.000 N 
ATOM      4  C   UNL     1     -46.094  -6.984 -28.728  0.00  0.00    +0.000 C 
ATOM      5  C   UNL     1     -46.332  -7.268 -27.279  0.00  0.00    +0.000 C 
ATOM      6  O   UNL     1     -46.633  -6.330 -26.498  0.00  0.00    +0.000 OA
ATOM      7  N   UNL     1     -46.303  -8.614 -26.802  0.00  0.00    +0.000 N 
ATOM      8  C   UNL     1     -45.879  -9.672 -27.657  0.00  0.00    +0.000 A 
ATOM      9  C   UNL     1     -45.340  -9.378 -28.924  0.00  0.00    +0.000 A 
ATOM     10  C   UNL     1     -44.923 -10.438 -29.745  0.00  0.00    +0.000 A 
ATOM     11  C   UNL     1     -45.032 -11.760 -29.309  0.00  0.00    +0.000 A 
ATOM     12  C   UNL     1     -45.573 -12.049 -28.049  0.00  0.00    +0.000 A 
ATOM     13  C   UNL     1     -45.980 -10.996 -27.221  0.00  0.00    +0.000 A 
ATOM     14  H   UNL     1     -46.578  -8.811 -25.877  0.00  0.00    +0.000 HD
ENDROOT
BRANCH  12  15
ATOM     15  C   UNL     1     -45.640 -13.464 -27.552  0.00  0.00    +0.000 C 
ATOM     16  F   UNL     1     -46.800 -13.640 -26.819  0.00  0.00    +0.000 F 
ATOM     17  F   UNL     1     -45.642 -14.345 -28.620  0.00  0.00    +0.000 F 
ATOM     18  F   UNL     1     -44.550 -13.752 -26.748  0.00  0.00    +0.000 F 
ENDBRANCH  12  15
BRANCH   1  19
ATOM     19  C   UNL     1     -44.381  -6.223 -31.024  0.00  0.00    +0.000 C 
ATOM     20  C   UNL     1     -43.171  -5.394 -30.627  0.00  0.00    +0.000 C 
BRANCH  19  21
ATOM     21  O   UNL     1     -44.488  -6.317 -32.439  0.00  0.00    +0.000 OA
BRANCH  21  22
ATOM     22  C   UNL     1     -45.699  -6.126 -33.109  0.00  0.00    +0.000 C 
ATOM     23  O   UNL     1     -46.535  -7.066 -33.210  0.00  0.00    +0.000 OA
BRANCH  22  25
ATOM     24  C   UNL     1     -47.302  -4.858 -34.530  0.00  0.00    +0.000 C 
ATOM     25  C   UNL     1     -46.001  -4.810 -33.746  0.00  0.00    +0.000 C 
BRANCH  25  26
ATOM     26  N   UNL     1     -46.017  -3.735 -32.754  0.00  0.00    +0.000 N 
ATOM     27  C   UNL     1     -45.253  -2.630 -32.748  0.00  0.00    +0.000 A 
ATOM     28  C   UNL     1     -44.290  -2.224 -33.671  0.00  0.00    +0.000 A 
ATOM     29  C   UNL     1     -43.614  -1.018 -33.405  0.00  0.00    +0.000 A 
ATOM     30  C   UNL     1     -43.911  -0.266 -32.246  0.00  0.00    +0.000 A 
ATOM     31  C   UNL     1     -44.886  -0.707 -31.332  0.00  0.00    +0.000 A 
ATOM     32  C   UNL     1     -45.535  -1.903 -31.623  0.00  0.00    +0.000 A 
ATOM     33  O   UNL     1     -46.457  -2.524 -30.927  0.00  0.00    +0.000 OA
ATOM     34  C   UNL     1     -46.738  -3.623 -31.607  0.00  0.00    +0.000 A 
ATOM     35  O   UNL     1     -47.580  -4.476 -31.221  0.00  0.00    +0.000 OA
ENDBRANCH  25  26
ENDBRANCH  22  25
ENDBRANCH  21  22
ENDBRANCH  19  21
ENDBRANCH   1  19
TORSDOF 6
ENDMDL
MODEL 3
REMARK VINA RESULT:      -6.9     12.089     15.325
REMARK  Name = ZINC000032899841 ZINC32899841 PubChem-40135872
REMARK  6 active torsions:
REMARK  status: ('A' for Active; 'I' for Inactive)
REMARK    1  A    between atoms: C_1  and  C_19
REMARK    2  A    between atoms: C_12  and  C_15
REMARK    3  A    between atoms: C_19  and  O_21
REMARK    4  A    between atoms: O_21  and  C_22
REMARK    5  A    between atoms: C_22  and  C_25
REMARK    6  A    between atoms: C_25  and  N_26
REMARK                            x       y       z     vdW  Elec       q    Type
REMARK                         _______ _______ _______ _____ _____    ______ ____
ROOT
ATOM      1  C   UNL     1     -44.344 -15.950 -24.110  0.00  0.00    +0.000 C 
ATOM      2  O   UNL     1     -44.722 -14.837 -23.659  0.00  0.00    +0.000 OA
ATOM      3  N   UNL     1     -44.230 -16.161 -25.539  0.00  0.00    +0.000 N 
ATOM      4  C   UNL     1     -43.571 -17.383 -26.025  0.00  0.00    +0.000 C 
ATOM      5  C   UNL     1     -42.841 -17.148 -27.310  0.00  0.00    +0.000 C 
ATOM      6  O   UNL     1     -41.877 -17.890 -27.627  0.00  0.00    +0.000 OA
ATOM      7  N   UNL     1     -43.295 -16.140 -28.214  0.00  0.00    +0.000 N 
ATOM      8  C   UNL     1     -44.330 -15.240 -27.828  0.00  0.00    +0.000 A 
ATOM      9  C   UNL     1     -44.801 -15.238 -26.501  0.00  0.00    +0.000 A 
ATOM     10  C   UNL     1     -45.817 -14.337 -26.144  0.00  0.00    +0.000 A 
ATOM     11  C   UNL     1     -46.343 -13.450 -27.085  0.00  0.00    +0.000 A 
ATOM     12  C   UNL     1     -45.874 -13.456 -28.406  0.00  0.00    +0.000 A 
ATOM     13  C   UNL     1     -44.854 -14.345 -28.766  0.00  0.00    +0.000 A 
ATOM     14  H   UNL     1     -42.891 -16.068 -29.109  0.00  0.00    +0.000 HD
ENDROOT
BRANCH  12  15
ATOM     15  C   UNL     1     -46.395 -12.466 -29.407  0.00  0.00    +0.000 C 
ATOM     16  F   UNL     1     -45.748 -12.651 -30.616  0.00  0.00    +0.000 F 
ATOM     17  F   UNL     1     -47.756 -12.646 -29.591  0.00  0.00    +0.000 F 
ATOM     18  F   UNL     1     -46.178 -11.170 -28.972  0.00  0.00    +0.000 F 
ENDBRANCH  12  15
BRANCH   1  19
ATOM     19  C   UNL     1     -43.980 -17.009 -23.114  0.00  0.00    +0.000 C 
ATOM     20  C   UNL     1     -42.871 -16.539 -22.189  0.00  0.00    +0.000 C 
BRANCH  19  21
ATOM     21  O   UNL     1     -45.126 -17.405 -22.369  0.00  0.00    +0.000 OA
BRANCH  21  22
ATOM     22  C   UNL     1     -45.075 -18.411 -21.401  0.00  0.00    +0.000 C 
ATOM     23  O   UNL     1     -44.410 -19.465 -21.601  0.00  0.00    +0.000 OA
BRANCH  22  25
ATOM     24  C   UNL     1     -46.004 -19.597 -19.420  0.00  0.00    +0.000 C 
ATOM     25  C   UNL     1     -45.841 -18.263 -20.129  0.00  0.00    +0.000 C 
BRANCH  25  26
ATOM     26  N   UNL     1     -45.224 -17.267 -19.254  0.00  0.00    +0.000 N 
ATOM     27  C   UNL     1     -45.780 -16.129 -18.806  0.00  0.00    +0.000 A 
ATOM     28  C   UNL     1     -47.061 -15.629 -19.036  0.00  0.00    +0.000 A 
ATOM     29  C   UNL     1     -47.379 -14.386 -18.456  0.00  0.00    +0.000 A 
ATOM     30  C   UNL     1     -46.426 -13.690 -17.679  0.00  0.00    +0.000 A 
ATOM     31  C   UNL     1     -45.140 -14.221 -17.470  0.00  0.00    +0.000 A 
ATOM     32  C   UNL     1     -44.857 -15.449 -18.058  0.00  0.00    +0.000 A 
ATOM     33  O   UNL     1     -43.739 -16.134 -18.025  0.00  0.00    +0.000 OA
ATOM     34  C   UNL     1     -43.964 -17.219 -18.747  0.00  0.00    +0.000 A 
ATOM     35  O   UNL     1     -43.092 -18.106 -18.948  0.00  0.00    +0.000 OA
ENDBRANCH  25  26
ENDBRANCH  22  25
ENDBRANCH  21  22
ENDBRANCH  19  21
ENDBRANCH   1  19
TORSDOF 6
ENDMDL
