MODEL 1
REMARK VINA RESULT:      -7.0      0.000      0.000
REMARK  Name = ZINC000012762430
REMARK  6 active torsions:
REMARK  status: ('A' for Active; 'I' for Inactive)
REMARK    1  A    between atoms: C_1  and  C_15
REMARK    2  A    between atoms: C_9  and  S_27
REMARK    3  A    between atoms: N_13  and  C_17
REMARK    4  A    between atoms: C_17  and  C_21
REMARK    5  A    between atoms: C_18  and  C_26
REMARK    6  A    between atoms: S_27  and  N_30
REMARK                            x       y       z     vdW  Elec       q    Type
REMARK                         _______ _______ _______ _____ _____    ______ ____
ROOT
ATOM      1  C   UNL     1     -44.619 -18.991 -19.887  0.00  0.00    +0.000 A 
ATOM      2  C   UNL     1     -43.879 -19.471 -18.799  0.00  0.00    +0.000 A 
ATOM      3  C   UNL     1     -42.679 -20.151 -19.008  0.00  0.00    +0.000 A 
ATOM      4  O   UNL     1     -42.020 -20.576 -18.023  0.00  0.00    +0.000 OA
ATOM      5  N   UNL     1     -42.222 -20.359 -20.270  0.00  0.00    +0.000 N 
ATOM      6  C   UNL     1     -42.906 -19.915 -21.357  0.00  0.00    +0.000 A 
ATOM      7  C   UNL     1     -42.397 -20.151 -22.637  0.00  0.00    +0.000 A 
ATOM      8  C   UNL     1     -43.088 -19.693 -23.761  0.00  0.00    +0.000 A 
ATOM      9  C   UNL     1     -44.291 -18.993 -23.611  0.00  0.00    +0.000 A 
ATOM     10  C   UNL     1     -44.803 -18.758 -22.332  0.00  0.00    +0.000 A 
ATOM     11  C   UNL     1     -44.127 -19.217 -21.193  0.00  0.00    +0.000 A 
ATOM     12  H   UNL     1     -41.374 -20.842 -20.399  0.00  0.00    +0.000 HD
ENDROOT
BRANCH   1  15
ATOM     13  N   UNL     1     -45.983 -16.963 -19.139  0.00  0.00    +0.000 N 
ATOM     14  C   UNL     1     -47.262 -16.421 -18.705  0.00  0.00    +0.000 C 
ATOM     15  C   UNL     1     -45.916 -18.315 -19.630  0.00  0.00    +0.000 C 
ATOM     16  O   UNL     1     -46.986 -18.955 -19.823  0.00  0.00    +0.000 OA
BRANCH  13  17
ATOM     17  C   UNL     1     -44.860 -16.044 -19.299  0.00  0.00    +0.000 C 
BRANCH  17  21
ATOM     18  C   UNL     1     -45.368 -12.986 -21.040  0.00  0.00    +0.000 A 
ATOM     19  C   UNL     1     -45.964 -13.816 -21.973  0.00  0.00    +0.000 A 
ATOM     20  C   UNL     1     -45.865 -15.093 -21.444  0.00  0.00    +0.000 A 
ATOM     21  C   UNL     1     -45.214 -14.936 -20.236  0.00  0.00    +0.000 A 
ATOM     22  O   UNL     1     -44.924 -13.678 -20.021  0.00  0.00    +0.000 OA
BRANCH  18  26
ATOM     23  C   UNL     1     -47.187 -11.410 -19.508  0.00  0.00    +0.000 C 
ATOM     24  C   UNL     1     -46.203 -10.643 -20.381  0.00  0.00    +0.000 C 
ATOM     25  C   UNL     1     -44.803 -10.876 -19.855  0.00  0.00    +0.000 C 
ATOM     26  C   UNL     1     -45.204 -11.499 -21.179  0.00  0.00    +0.000 C 
ENDBRANCH  18  26
ENDBRANCH  17  21
ENDBRANCH  13  17
ENDBRANCH   1  15
BRANCH   9  27
ATOM     27  S   UNL     1     -45.166 -18.424 -25.026  0.00  0.00    +0.000 S 
ATOM     28  O   UNL     1     -44.672 -19.160 -26.241  0.00  0.00    +0.000 OA
ATOM     29  O   UNL     1     -46.630 -18.720 -24.858  0.00  0.00    +0.000 OA
BRANCH  27  30
ATOM     30  N   UNL     1     -44.946 -16.718 -25.252  0.00  0.00    +0.000 NA
ATOM     31  C   UNL     1     -44.486 -16.502 -26.625  0.00  0.00    +0.000 C 
ATOM     32  C   UNL     1     -44.470 -15.003 -26.932  0.00  0.00    +0.000 C 
ATOM     33  O   UNL     1     -45.773 -14.481 -26.813  0.00  0.00    +0.000 OA
ATOM     34  C   UNL     1     -46.139 -14.590 -25.459  0.00  0.00    +0.000 C 
ATOM     35  C   UNL     1     -46.245 -16.066 -25.067  0.00  0.00    +0.000 C 
ENDBRANCH  27  30
ENDBRANCH   9  27
TORSDOF 6
ENDMDL
MODEL 2
REMARK VINA RESULT:      -6.8      9.677     13.850
REMARK  Name = ZINC000012762430
REMARK  6 active torsions:
REMARK  status: ('A' for Active; 'I' for Inactive)
REMARK    1  A    between atoms: C_1  and  C_15
REMARK    2  A    between atoms: C_9  and  S_27
REMARK    3  A    between atoms: N_13  and  C_17
REMARK    4  A    between atoms: C_17  and  C_21
REMARK    5  A    between atoms: C_18  and  C_26
REMARK    6  A    between atoms: S_27  and  N_30
REMARK                            x       y       z     vdW  Elec       q    Type
REMARK                         _______ _______ _______ _____ _____    ______ ____
ROOT
ATOM      1  C   UNL     1     -46.685  -6.725 -29.603  0.00  0.00    +0.000 A 
ATOM      2  C   UNL     1     -47.310  -5.480 -29.465  0.00  0.00    +0.000 A 
ATOM      3  C   UNL     1     -47.164  -4.744 -28.289  0.00  0.00    +0.000 A 
ATOM      4  O   UNL     1     -47.727  -3.624 -28.176  0.00  0.00    +0.000 OA
ATOM      5  N   UNL     1     -46.419  -5.234 -27.265  0.00  0.00    +0.000 N 
ATOM      6  C   UNL     1     -45.797  -6.439 -27.350  0.00  0.00    +0.000 A 
ATOM      7  C   UNL     1     -45.039  -6.904 -26.271  0.00  0.00    +0.000 A 
ATOM      8  C   UNL     1     -44.389  -8.138 -26.351  0.00  0.00    +0.000 A 
ATOM      9  C   UNL     1     -44.490  -8.912 -27.512  0.00  0.00    +0.000 A 
ATOM     10  C   UNL     1     -45.248  -8.451 -28.592  0.00  0.00    +0.000 A 
ATOM     11  C   UNL     1     -45.914  -7.219 -28.526  0.00  0.00    +0.000 A 
ATOM     12  H   UNL     1     -46.328  -4.703 -26.441  0.00  0.00    +0.000 HD
ENDROOT
BRANCH   1  15
ATOM     13  N   UNL     1     -46.261  -7.145 -32.088  0.00  0.00    +0.000 N 
ATOM     14  C   UNL     1     -46.667  -7.804 -33.321  0.00  0.00    +0.000 C 
ATOM     15  C   UNL     1     -46.903  -7.502 -30.850  0.00  0.00    +0.000 C 
ATOM     16  O   UNL     1     -47.692  -8.486 -30.825  0.00  0.00    +0.000 OA
BRANCH  13  17
ATOM     17  C   UNL     1     -45.051  -6.330 -32.106  0.00  0.00    +0.000 C 
BRANCH  17  21
ATOM     18  C   UNL     1     -45.031  -2.970 -33.269  0.00  0.00    +0.000 A 
ATOM     19  C   UNL     1     -46.381  -3.210 -33.458  0.00  0.00    +0.000 A 
ATOM     20  C   UNL     1     -46.584  -4.515 -33.037  0.00  0.00    +0.000 A 
ATOM     21  C   UNL     1     -45.342  -4.963 -32.630  0.00  0.00    +0.000 A 
ATOM     22  O   UNL     1     -44.436  -4.031 -32.783  0.00  0.00    +0.000 OA
BRANCH  18  26
ATOM     23  C   UNL     1     -44.950  -1.028 -31.181  0.00  0.00    +0.000 C 
ATOM     24  C   UNL     1     -44.301  -0.627 -32.499  0.00  0.00    +0.000 C 
ATOM     25  C   UNL     1     -43.094  -1.510 -32.734  0.00  0.00    +0.000 C 
ATOM     26  C   UNL     1     -44.320  -1.692 -33.609  0.00  0.00    +0.000 C 
ENDBRANCH  18  26
ENDBRANCH  17  21
ENDBRANCH  13  17
ENDBRANCH   1  15
BRANCH   9  27
ATOM     27  S   UNL     1     -43.680 -10.470 -27.609  0.00  0.00    +0.000 S 
ATOM     28  O   UNL     1     -42.616 -10.408 -28.670  0.00  0.00    +0.000 OA
ATOM     29  O   UNL     1     -43.018 -10.770 -26.294  0.00  0.00    +0.000 OA
BRANCH  27  30
ATOM     30  N   UNL     1     -44.804 -11.735 -27.989  0.00  0.00    +0.000 NA
ATOM     31  C   UNL     1     -44.146 -12.657 -28.918  0.00  0.00    +0.000 C 
ATOM     32  C   UNL     1     -45.026 -13.892 -29.125  0.00  0.00    +0.000 C 
ATOM     33  O   UNL     1     -45.207 -14.556 -27.896  0.00  0.00    +0.000 OA
ATOM     34  C   UNL     1     -45.948 -13.694 -27.068  0.00  0.00    +0.000 C 
ATOM     35  C   UNL     1     -45.123 -12.445 -26.747  0.00  0.00    +0.000 C 
ENDBRANCH  27  30
ENDBRANCH   9  27
TORSDOF 6
ENDMDL
MODEL 3
REMARK VINA RESULT:      -6.8      1.647      2.369
REMARK  Name = ZINC000012762430
REMARK  6 active torsions:
REMARK  status: ('A' for Active; 'I' for Inactive)
REMARK    1  A    between atoms: C_1  and  C_15
REMARK    2  A    between atoms: C_9  and  S_27
REMARK    3  A    between atoms: N_13  and  C_17
REMARK    4  A    between atoms: C_17  and  C_21
REMARK    5  A    between atoms: C_18  and  C_26
REMARK    6  A    between atoms: S_27  and  N_30
REMARK                            x       y       z     vdW  Elec       q    Type
REMARK                         _______ _______ _______ _____ _____    ______ ____
ROOT
ATOM      1  C   UNL     1     -44.672 -18.972 -19.919  0.00  0.00    +0.000 A 
ATOM      2  C   UNL     1     -43.949 -19.445 -18.817  0.00  0.00    +0.000 A 
ATOM      3  C   UNL     1     -42.742 -20.120 -19.002  0.00  0.00    +0.000 A 
ATOM      4  O   UNL     1     -42.098 -20.538 -18.005  0.00  0.00    +0.000 OA
ATOM      5  N   UNL     1     -42.263 -20.330 -20.256  0.00  0.00    +0.000 N 
ATOM      6  C   UNL     1     -42.931 -19.894 -21.356  0.00  0.00    +0.000 A 
ATOM      7  C   UNL     1     -42.399 -20.132 -22.626  0.00  0.00    +0.000 A 
ATOM      8  C   UNL     1     -43.073 -19.682 -23.764  0.00  0.00    +0.000 A 
ATOM      9  C   UNL     1     -44.281 -18.987 -23.637  0.00  0.00    +0.000 A 
ATOM     10  C   UNL     1     -44.816 -18.749 -22.368  0.00  0.00    +0.000 A 
ATOM     11  C   UNL     1     -44.157 -19.201 -21.215  0.00  0.00    +0.000 A 
ATOM     12  H   UNL     1     -41.411 -20.810 -20.369  0.00  0.00    +0.000 HD
ENDROOT
BRANCH   1  15
ATOM     13  N   UNL     1     -46.068 -17.035 -19.006  0.00  0.00    +0.000 N 
ATOM     14  C   UNL     1     -47.374 -16.524 -18.617  0.00  0.00    +0.000 C 
ATOM     15  C   UNL     1     -45.976 -18.301 -19.686  0.00  0.00    +0.000 C 
ATOM     16  O   UNL     1     -47.033 -18.870 -20.074  0.00  0.00    +0.000 OA
BRANCH  13  17
ATOM     17  C   UNL     1     -44.919 -16.138 -18.919  0.00  0.00    +0.000 C 
BRANCH  17  21
ATOM     18  C   UNL     1     -43.539 -15.254 -22.073  0.00  0.00    +0.000 A 
ATOM     19  C   UNL     1     -44.662 -14.448 -22.145  0.00  0.00    +0.000 A 
ATOM     20  C   UNL     1     -45.343 -14.661 -20.956  0.00  0.00    +0.000 A 
ATOM     21  C   UNL     1     -44.581 -15.581 -20.262  0.00  0.00    +0.000 A 
ATOM     22  O   UNL     1     -43.520 -15.921 -20.947  0.00  0.00    +0.000 OA
BRANCH  18  26
ATOM     23  C   UNL     1     -41.075 -13.910 -21.560  0.00  0.00    +0.000 C 
ATOM     24  C   UNL     1     -41.179 -14.641 -22.893  0.00  0.00    +0.000 C 
ATOM     25  C   UNL     1     -41.280 -16.128 -22.624  0.00  0.00    +0.000 C 
ATOM     26  C   UNL     1     -42.498 -15.390 -23.147  0.00  0.00    +0.000 C 
ENDBRANCH  18  26
ENDBRANCH  17  21
ENDBRANCH  13  17
ENDBRANCH   1  15
BRANCH   9  27
ATOM     27  S   UNL     1     -45.135 -18.428 -25.069  0.00  0.00    +0.000 S 
ATOM     28  O   UNL     1     -44.598 -19.145 -26.276  0.00  0.00    +0.000 OA
ATOM     29  O   UNL     1     -46.596 -18.755 -24.937  0.00  0.00    +0.000 OA
BRANCH  27  30
ATOM     30  N   UNL     1     -44.946 -16.716 -25.279  0.00  0.00    +0.000 NA
ATOM     31  C   UNL     1     -44.516 -16.478 -26.659  0.00  0.00    +0.000 C 
ATOM     32  C   UNL     1     -44.529 -14.976 -26.949  0.00  0.00    +0.000 C 
ATOM     33  O   UNL     1     -45.837 -14.475 -26.799  0.00  0.00    +0.000 OA
ATOM     34  C   UNL     1     -46.174 -14.604 -25.440  0.00  0.00    +0.000 C 
ATOM     35  C   UNL     1     -46.250 -16.086 -25.062  0.00  0.00    +0.000 C 
ENDBRANCH  27  30
ENDBRANCH   9  27
TORSDOF 6
ENDMDL
