MODEL 1
REMARK VINA RESULT:      -7.1      0.000      0.000
REMARK  Name = ZINC000014495283
REMARK  4 active torsions:
REMARK  status: ('A' for Active; 'I' for Inactive)
REMARK    1  A    between atoms: C_1  and  C_14
REMARK    2  A    between atoms: C_9  and  S_25
REMARK    3  A    between atoms: N_13  and  C_24
REMARK    4  A    between atoms: S_25  and  N_28
REMARK                            x       y       z     vdW  Elec       q    Type
REMARK                         _______ _______ _______ _____ _____    ______ ____
ROOT
ATOM      1  C   UNL     1     -46.688  -5.024 -31.980  0.00  0.00    +0.000 A 
ATOM      2  C   UNL     1     -46.936  -4.628 -33.301  0.00  0.00    +0.000 A 
ATOM      3  C   UNL     1     -46.929  -5.567 -34.331  0.00  0.00    +0.000 A 
ATOM      4  O   UNL     1     -47.157  -5.204 -35.513  0.00  0.00    +0.000 OA
ATOM      5  N   UNL     1     -46.676  -6.875 -34.061  0.00  0.00    +0.000 N 
ATOM      6  C   UNL     1     -46.426  -7.306 -32.797  0.00  0.00    +0.000 A 
ATOM      7  C   UNL     1     -46.177  -8.661 -32.565  0.00  0.00    +0.000 A 
ATOM      8  C   UNL     1     -45.929  -9.117 -31.268  0.00  0.00    +0.000 A 
ATOM      9  C   UNL     1     -45.932  -8.219 -30.195  0.00  0.00    +0.000 A 
ATOM     10  C   UNL     1     -46.182  -6.862 -30.421  0.00  0.00    +0.000 A 
ATOM     11  C   UNL     1     -46.424  -6.387 -31.719  0.00  0.00    +0.000 A 
ATOM     12  H   UNL     1     -46.674  -7.526 -34.799  0.00  0.00    +0.000 HD
ENDROOT
BRANCH   1  14
ATOM     13  N   UNL     1     -45.520  -3.182 -30.660  0.00  0.00    +0.000 N 
ATOM     14  C   UNL     1     -46.678  -3.989 -30.918  0.00  0.00    +0.000 C 
ATOM     15  O   UNL     1     -47.682  -3.856 -30.169  0.00  0.00    +0.000 OA
ATOM     16  H   UNL     1     -45.366  -2.908 -29.727  0.00  0.00    +0.000 HD
BRANCH  13  24
ATOM     17  C   UNL     1     -43.125  -4.715 -31.053  0.00  0.00    +0.000 C 
ATOM     18  C   UNL     1     -43.372  -3.461 -31.830  0.00  0.00    +0.000 A 
ATOM     19  C   UNL     1     -42.421  -3.006 -32.764  0.00  0.00    +0.000 A 
ATOM     20 CL   UNL     1     -40.925  -3.881 -33.058  0.00  0.00    +0.000 Cl
ATOM     21  C   UNL     1     -42.656  -1.831 -33.482  0.00  0.00    +0.000 A 
ATOM     22  C   UNL     1     -43.828  -1.102 -33.277  0.00  0.00    +0.000 A 
ATOM     23  C   UNL     1     -44.773  -1.550 -32.355  0.00  0.00    +0.000 A 
ATOM     24  C   UNL     1     -44.563  -2.737 -31.635  0.00  0.00    +0.000 A 
ENDBRANCH  13  24
ENDBRANCH   1  14
BRANCH   9  25
ATOM     25  S   UNL     1     -45.625  -8.786 -28.563  0.00  0.00    +0.000 S 
ATOM     26  O   UNL     1     -45.411  -7.607 -27.653  0.00  0.00    +0.000 OA
ATOM     27  O   UNL     1     -44.383  -9.632 -28.569  0.00  0.00    +0.000 OA
BRANCH  25  28
ATOM     28  N   UNL     1     -46.979  -9.735 -28.011  0.00  0.00    +0.000 NA
ATOM     29  C   UNL     1     -47.440  -9.254 -26.700  0.00  0.00    +0.000 C 
ATOM     30  C   UNL     1     -46.564  -9.784 -25.558  0.00  0.00    +0.000 C 
ATOM     31  O   UNL     1     -46.539 -11.186 -25.591  0.00  0.00    +0.000 OA
ATOM     32  C   UNL     1     -45.817 -11.533 -26.742  0.00  0.00    +0.000 C 
ATOM     33  C   UNL     1     -46.625 -11.163 -27.992  0.00  0.00    +0.000 C 
ENDBRANCH  25  28
ENDBRANCH   9  25
TORSDOF 4
ENDMDL
MODEL 2
REMARK VINA RESULT:      -6.9      4.578      8.045
REMARK  Name = ZINC000014495283
REMARK  4 active torsions:
REMARK  status: ('A' for Active; 'I' for Inactive)
REMARK    1  A    between atoms: C_1  and  C_14
REMARK    2  A    between atoms: C_9  and  S_25
REMARK    3  A    between atoms: N_13  and  C_24
REMARK    4  A    between atoms: S_25  and  N_28
REMARK                            x       y       z     vdW  Elec       q    Type
REMARK                         _______ _______ _______ _____ _____    ______ ____
ROOT
ATOM      1  C   UNL     1     -45.218  -7.269 -24.829  0.00  0.00    +0.000 A 
ATOM      2  C   UNL     1     -44.434  -7.289 -23.668  0.00  0.00    +0.000 A 
ATOM      3  C   UNL     1     -43.054  -7.104 -23.747  0.00  0.00    +0.000 A 
ATOM      4  O   UNL     1     -42.358  -7.119 -22.700  0.00  0.00    +0.000 OA
ATOM      5  N   UNL     1     -42.459  -6.909 -24.953  0.00  0.00    +0.000 N 
ATOM      6  C   UNL     1     -43.178  -6.886 -26.106  0.00  0.00    +0.000 A 
ATOM      7  C   UNL     1     -42.525  -6.676 -27.324  0.00  0.00    +0.000 A 
ATOM      8  C   UNL     1     -43.256  -6.640 -28.514  0.00  0.00    +0.000 A 
ATOM      9  C   UNL     1     -44.643  -6.811 -28.493  0.00  0.00    +0.000 A 
ATOM     10  C   UNL     1     -45.302  -7.019 -27.278  0.00  0.00    +0.000 A 
ATOM     11  C   UNL     1     -44.582  -7.068 -26.074  0.00  0.00    +0.000 A 
ATOM     12  H   UNL     1     -41.484  -6.781 -24.993  0.00  0.00    +0.000 HD
ENDROOT
BRANCH   1  14
ATOM     13  N   UNL     1     -47.576  -6.443 -24.321  0.00  0.00    +0.000 N 
ATOM     14  C   UNL     1     -46.679  -7.495 -24.703  0.00  0.00    +0.000 C 
ATOM     15  O   UNL     1     -47.145  -8.654 -24.865  0.00  0.00    +0.000 OA
ATOM     16  H   UNL     1     -48.365  -6.701 -23.790  0.00  0.00    +0.000 HD
BRANCH  13  24
ATOM     17  C   UNL     1     -47.218  -4.564 -22.181  0.00  0.00    +0.000 C 
ATOM     18  C   UNL     1     -47.276  -4.108 -23.604  0.00  0.00    +0.000 A 
ATOM     19  C   UNL     1     -47.166  -2.738 -23.914  0.00  0.00    +0.000 A 
ATOM     20 CL   UNL     1     -46.955  -1.522 -22.663  0.00  0.00    +0.000 Cl
ATOM     21  C   UNL     1     -47.227  -2.318 -25.245  0.00  0.00    +0.000 A 
ATOM     22  C   UNL     1     -47.399  -3.249 -26.270  0.00  0.00    +0.000 A 
ATOM     23  C   UNL     1     -47.506  -4.606 -25.967  0.00  0.00    +0.000 A 
ATOM     24  C   UNL     1     -47.432  -5.050 -24.637  0.00  0.00    +0.000 A 
ENDBRANCH  13  24
ENDBRANCH   1  14
BRANCH   9  25
ATOM     25  S   UNL     1     -45.566  -6.762 -29.984  0.00  0.00    +0.000 S 
ATOM     26  O   UNL     1     -47.029  -6.610 -29.666  0.00  0.00    +0.000 OA
ATOM     27  O   UNL     1     -45.359  -8.053 -30.726  0.00  0.00    +0.000 OA
BRANCH  25  28
ATOM     28  N   UNL     1     -45.021  -5.428 -30.965  0.00  0.00    +0.000 NA
ATOM     29  C   UNL     1     -45.824  -4.227 -30.687  0.00  0.00    +0.000 C 
ATOM     30  C   UNL     1     -47.168  -4.257 -31.423  0.00  0.00    +0.000 C 
ATOM     31  O   UNL     1     -46.951  -4.401 -32.801  0.00  0.00    +0.000 OA
ATOM     32  C   UNL     1     -46.453  -5.700 -32.981  0.00  0.00    +0.000 C 
ATOM     33  C   UNL     1     -45.043  -5.801 -32.388  0.00  0.00    +0.000 C 
ENDBRANCH  25  28
ENDBRANCH   9  25
TORSDOF 4
ENDMDL
MODEL 3
REMARK VINA RESULT:      -6.9      7.529     14.094
REMARK  Name = ZINC000014495283
REMARK  4 active torsions:
REMARK  status: ('A' for Active; 'I' for Inactive)
REMARK    1  A    between atoms: C_1  and  C_14
REMARK    2  A    between atoms: C_9  and  S_25
REMARK    3  A    between atoms: N_13  and  C_24
REMARK    4  A    between atoms: S_25  and  N_28
REMARK                            x       y       z     vdW  Elec       q    Type
REMARK                         _______ _______ _______ _____ _____    ______ ____
ROOT
ATOM      1  C   UNL     1     -45.517 -17.933 -23.433  0.00  0.00    +0.000 A 
ATOM      2  C   UNL     1     -45.581 -18.474 -22.142  0.00  0.00    +0.000 A 
ATOM      3  C   UNL     1     -45.626 -17.635 -21.029  0.00  0.00    +0.000 A 
ATOM      4  O   UNL     1     -45.686 -18.128 -19.874  0.00  0.00    +0.000 OA
ATOM      5  N   UNL     1     -45.601 -16.286 -21.189  0.00  0.00    +0.000 N 
ATOM      6  C   UNL     1     -45.536 -15.716 -22.420  0.00  0.00    +0.000 A 
ATOM      7  C   UNL     1     -45.520 -14.324 -22.539  0.00  0.00    +0.000 A 
ATOM      8  C   UNL     1     -45.463 -13.727 -23.801  0.00  0.00    +0.000 A 
ATOM      9  C   UNL     1     -45.426 -14.521 -24.952  0.00  0.00    +0.000 A 
ATOM     10  C   UNL     1     -45.443 -15.913 -24.840  0.00  0.00    +0.000 A 
ATOM     11  C   UNL     1     -45.490 -16.529 -23.580  0.00  0.00    +0.000 A 
ATOM     12  H   UNL     1     -45.632 -15.707 -20.394  0.00  0.00    +0.000 HD
ENDROOT
BRANCH   1  14
ATOM     13  N   UNL     1     -44.192 -19.359 -25.079  0.00  0.00    +0.000 N 
ATOM     14  C   UNL     1     -45.445 -18.861 -24.589  0.00  0.00    +0.000 C 
ATOM     15  O   UNL     1     -46.498 -19.167 -25.207  0.00  0.00    +0.000 OA
ATOM     16  H   UNL     1     -44.127 -19.525 -26.048  0.00  0.00    +0.000 HD
BRANCH  13  24
ATOM     17  C   UNL     1     -42.021 -17.482 -25.098  0.00  0.00    +0.000 C 
ATOM     18  C   UNL     1     -41.940 -18.745 -24.301  0.00  0.00    +0.000 A 
ATOM     19  C   UNL     1     -40.783 -19.037 -23.552  0.00  0.00    +0.000 A 
ATOM     20 CL   UNL     1     -39.406 -17.946 -23.517  0.00  0.00    +0.000 Cl
ATOM     21  C   UNL     1     -40.711 -20.221 -22.815  0.00  0.00    +0.000 A 
ATOM     22  C   UNL     1     -41.779 -21.120 -22.818  0.00  0.00    +0.000 A 
ATOM     23  C   UNL     1     -42.927 -20.833 -23.556  0.00  0.00    +0.000 A 
ATOM     24  C   UNL     1     -43.025 -19.641 -24.291  0.00  0.00    +0.000 A 
ENDBRANCH  13  24
ENDBRANCH   1  14
BRANCH   9  25
ATOM     25  S   UNL     1     -45.359 -13.777 -26.539  0.00  0.00    +0.000 S 
ATOM     26  O   UNL     1     -45.262 -14.847 -27.593  0.00  0.00    +0.000 OA
ATOM     27  O   UNL     1     -44.138 -12.904 -26.615  0.00  0.00    +0.000 OA
BRANCH  25  28
ATOM     28  N   UNL     1     -46.787 -12.809 -26.792  0.00  0.00    +0.000 NA
ATOM     29  C   UNL     1     -47.244 -12.926 -28.186  0.00  0.00    +0.000 C 
ATOM     30  C   UNL     1     -46.433 -12.028 -29.128  0.00  0.00    +0.000 C 
ATOM     31  O   UNL     1     -46.504 -10.697 -28.692  0.00  0.00    +0.000 OA
ATOM     32  C   UNL     1     -45.781 -10.644 -27.491  0.00  0.00    +0.000 C 
ATOM     33  C   UNL     1     -46.533 -11.414 -26.399  0.00  0.00    +0.000 C 
ENDBRANCH  25  28
ENDBRANCH   9  25
TORSDOF 4
ENDMDL
