MODEL 1
REMARK VINA RESULT:      -7.2      0.000      0.000
REMARK  Name = ZINC000096011142 ZINC96011142 CSC027537832 MCULE-9100666836 MolPort-028-801-490 PubChem-75455099
REMARK  4 active torsions:
REMARK  status: ('A' for Active; 'I' for Inactive)
REMARK    1  A    between atoms: C_1  and  C_28
REMARK    2  A    between atoms: C_10  and  C_15
REMARK    3  A    between atoms: N_17  and  C_20
REMARK    4  A    between atoms: C_28  and  O_31
REMARK                            x       y       z     vdW  Elec       q    Type
REMARK                         _______ _______ _______ _____ _____    ______ ____
ROOT
ATOM      1  C   UNL     1     -45.913 -12.829 -27.613  0.00  0.00    +0.000 A 
ATOM      2  C   UNL     1     -45.208 -13.160 -28.777  0.00  0.00    +0.000 A 
ATOM      3  C   UNL     1     -44.448 -14.330 -28.833  0.00  0.00    +0.000 A 
ATOM      4  C   UNL     1     -44.382 -15.176 -27.724  0.00  0.00    +0.000 A 
ATOM      5  N   UNL     1     -43.609 -16.373 -27.790  0.00  0.00    +0.000 N 
ATOM      6  C   UNL     1     -43.436 -17.187 -26.630  0.00  0.00    +0.000 C 
ATOM      7  O   UNL     1     -42.829 -18.286 -26.721  0.00  0.00    +0.000 OA
ATOM      8  C   UNL     1     -43.905 -16.702 -25.294  0.00  0.00    +0.000 C 
ATOM      9  N   UNL     1     -45.023 -15.758 -25.415  0.00  0.00    +0.000 N 
ATOM     10  C   UNL     1     -46.026 -15.727 -24.380  0.00  0.00    +0.000 C 
ATOM     11  O   UNL     1     -47.224 -15.472 -24.681  0.00  0.00    +0.000 OA
ATOM     12  C   UNL     1     -45.091 -14.865 -26.550  0.00  0.00    +0.000 A 
ATOM     13  C   UNL     1     -45.850 -13.684 -26.505  0.00  0.00    +0.000 A 
ATOM     14  H   UNL     1     -43.193 -16.641 -28.643  0.00  0.00    +0.000 HD
ENDROOT
BRANCH  10  15
ATOM     15  C   UNL     1     -45.691 -15.991 -22.967  0.00  0.00    +0.000 A 
ATOM     16  N   UNL     1     -45.193 -17.152 -22.511  0.00  0.00    +0.000 NA
ATOM     17  N   UNL     1     -44.996 -17.015 -21.211  0.00  0.00    +0.000 N 
ATOM     18  C   UNL     1     -45.353 -15.771 -20.826  0.00  0.00    +0.000 A 
ATOM     19  C   UNL     1     -45.806 -15.076 -21.935  0.00  0.00    +0.000 A 
BRANCH  17  20
ATOM     20  C   UNL     1     -44.467 -18.038 -20.339  0.00  0.00    +0.000 A 
ATOM     21  C   UNL     1     -43.076 -18.107 -20.140  0.00  0.00    +0.000 A 
ATOM     22  C   UNL     1     -42.514 -19.077 -19.309  0.00  0.00    +0.000 A 
ATOM     23  C   UNL     1     -43.334 -19.998 -18.660  0.00  0.00    +0.000 A 
ATOM     24  F   UNL     1     -42.791 -20.941 -17.854  0.00  0.00    +0.000 F 
ATOM     25  C   UNL     1     -44.717 -19.947 -18.841  0.00  0.00    +0.000 A 
ATOM     26  C   UNL     1     -45.293 -18.980 -19.672  0.00  0.00    +0.000 A 
ATOM     27  C   UNL     1     -46.778 -18.993 -19.801  0.00  0.00    +0.000 C 
ENDBRANCH  17  20
ENDBRANCH  10  15
BRANCH   1  28
ATOM     28  C   UNL     1     -46.713 -11.593 -27.559  0.00  0.00    +0.000 C 
ATOM     29  O   UNL     1     -47.440 -11.356 -26.555  0.00  0.00    +0.000 OA
BRANCH  28  31
ATOM     30  C   UNL     1     -46.783  -9.288 -28.423  0.00  0.00    +0.000 C 
ATOM     31  O   UNL     1     -46.662 -10.689 -28.622  0.00  0.00    +0.000 OA
ENDBRANCH  28  31
ENDBRANCH   1  28
TORSDOF 4
ENDMDL
MODEL 2
REMARK VINA RESULT:      -6.8      9.334     13.782
REMARK  Name = ZINC000096011142 ZINC96011142 CSC027537832 MCULE-9100666836 MolPort-028-801-490 PubChem-75455099
REMARK  4 active torsions:
REMARK  status: ('A' for Active; 'I' for Inactive)
REMARK    1  A    between atoms: C_1  and  C_28
REMARK    2  A    between atoms: C_10  and  C_15
REMARK    3  A    between atoms: N_17  and  C_20
REMARK    4  A    between atoms: C_28  and  O_31
REMARK                            x       y       z     vdW  Elec       q    Type
REMARK                         _______ _______ _______ _____ _____    ______ ____
ROOT
ATOM      1  C   UNL     1     -45.772 -11.376 -32.016  0.00  0.00    +0.000 A 
ATOM      2  C   UNL     1     -45.890 -12.398 -31.067  0.00  0.00    +0.000 A 
ATOM      3  C   UNL     1     -46.269 -12.104 -29.756  0.00  0.00    +0.000 A 
ATOM      4  C   UNL     1     -46.529 -10.784 -29.381  0.00  0.00    +0.000 A 
ATOM      5  N   UNL     1     -46.923 -10.491 -28.042  0.00  0.00    +0.000 N 
ATOM      6  C   UNL     1     -47.077  -9.139 -27.613  0.00  0.00    +0.000 C 
ATOM      7  O   UNL     1     -47.512  -8.893 -26.458  0.00  0.00    +0.000 OA
ATOM      8  C   UNL     1     -46.652  -8.013 -28.504  0.00  0.00    +0.000 C 
ATOM      9  N   UNL     1     -46.711  -8.385 -29.923  0.00  0.00    +0.000 N 
ATOM     10  C   UNL     1     -47.036  -7.374 -30.898  0.00  0.00    +0.000 C 
ATOM     11  O   UNL     1     -47.695  -7.688 -31.927  0.00  0.00    +0.000 OA
ATOM     12  C   UNL     1     -46.426  -9.745 -30.323  0.00  0.00    +0.000 A 
ATOM     13  C   UNL     1     -46.042 -10.054 -31.639  0.00  0.00    +0.000 A 
ATOM     14  H   UNL     1     -47.090 -11.228 -27.409  0.00  0.00    +0.000 HD
ENDROOT
BRANCH  10  15
ATOM     15  C   UNL     1     -46.621  -5.967 -30.724  0.00  0.00    +0.000 A 
ATOM     16  N   UNL     1     -45.645  -5.372 -31.429  0.00  0.00    +0.000 NA
ATOM     17  N   UNL     1     -45.572  -4.117 -31.022  0.00  0.00    +0.000 N 
ATOM     18  C   UNL     1     -46.499  -3.895 -30.066  0.00  0.00    +0.000 A 
ATOM     19  C   UNL     1     -47.200  -5.068 -29.846  0.00  0.00    +0.000 A 
BRANCH  17  20
ATOM     20  C   UNL     1     -44.647  -3.132 -31.532  0.00  0.00    +0.000 A 
ATOM     21  C   UNL     1     -45.132  -1.853 -31.864  0.00  0.00    +0.000 A 
ATOM     22  C   UNL     1     -44.281  -0.866 -32.362  0.00  0.00    +0.000 A 
ATOM     23  C   UNL     1     -42.926  -1.139 -32.538  0.00  0.00    +0.000 A 
ATOM     24  F   UNL     1     -42.098  -0.183 -33.022  0.00  0.00    +0.000 F 
ATOM     25  C   UNL     1     -42.421  -2.400 -32.215  0.00  0.00    +0.000 A 
ATOM     26  C   UNL     1     -43.264  -3.398 -31.715  0.00  0.00    +0.000 A 
ATOM     27  C   UNL     1     -42.641  -4.712 -31.387  0.00  0.00    +0.000 C 
ENDBRANCH  17  20
ENDBRANCH  10  15
BRANCH   1  28
ATOM     28  C   UNL     1     -45.372 -11.691 -33.398  0.00  0.00    +0.000 C 
ATOM     29  O   UNL     1     -46.231 -12.104 -34.226  0.00  0.00    +0.000 OA
BRANCH  28  31
ATOM     30  C   UNL     1     -43.562 -10.318 -34.349  0.00  0.00    +0.000 C 
ATOM     31  O   UNL     1     -44.039 -11.531 -33.785  0.00  0.00    +0.000 OA
ENDBRANCH  28  31
ENDBRANCH   1  28
TORSDOF 4
ENDMDL
MODEL 3
REMARK VINA RESULT:      -6.8      9.159     14.750
REMARK  Name = ZINC000096011142 ZINC96011142 CSC027537832 MCULE-9100666836 MolPort-028-801-490 PubChem-75455099
REMARK  4 active torsions:
REMARK  status: ('A' for Active; 'I' for Inactive)
REMARK    1  A    between atoms: C_1  and  C_28
REMARK    2  A    between atoms: C_10  and  C_15
REMARK    3  A    between atoms: N_17  and  C_20
REMARK    4  A    between atoms: C_28  and  O_31
REMARK                            x       y       z     vdW  Elec       q    Type
REMARK                         _______ _______ _______ _____ _____    ______ ____
ROOT
ATOM      1  C   UNL     1     -45.912  -9.712 -28.313  0.00  0.00    +0.000 A 
ATOM      2  C   UNL     1     -46.083  -9.704 -26.923  0.00  0.00    +0.000 A 
ATOM      3  C   UNL     1     -46.439  -8.527 -26.262  0.00  0.00    +0.000 A 
ATOM      4  C   UNL     1     -46.623  -7.346 -26.985  0.00  0.00    +0.000 A 
ATOM      5  N   UNL     1     -46.994  -6.149 -26.304  0.00  0.00    +0.000 N 
ATOM      6  C   UNL     1     -47.071  -4.910 -27.009  0.00  0.00    +0.000 C 
ATOM      7  O   UNL     1     -47.486  -3.879 -26.420  0.00  0.00    +0.000 OA
ATOM      8  C   UNL     1     -46.586  -4.818 -28.423  0.00  0.00    +0.000 C 
ATOM      9  N   UNL     1     -46.672  -6.109 -29.117  0.00  0.00    +0.000 N 
ATOM     10  C   UNL     1     -46.943  -6.124 -30.533  0.00  0.00    +0.000 C 
ATOM     11  O   UNL     1     -47.623  -7.065 -31.027  0.00  0.00    +0.000 OA
ATOM     12  C   UNL     1     -46.466  -7.337 -28.382  0.00  0.00    +0.000 A 
ATOM     13  C   UNL     1     -46.105  -8.527 -29.035  0.00  0.00    +0.000 A 
ATOM     14  H   UNL     1     -47.200  -6.177 -25.341  0.00  0.00    +0.000 HD
ENDROOT
BRANCH  10  15
ATOM     15  C   UNL     1     -46.449  -5.060 -31.429  0.00  0.00    +0.000 A 
ATOM     16  N   UNL     1     -45.264  -4.443 -31.291  0.00  0.00    +0.000 NA
ATOM     17  N   UNL     1     -45.153  -3.574 -32.280  0.00  0.00    +0.000 N 
ATOM     18  C   UNL     1     -46.252  -3.631 -33.061  0.00  0.00    +0.000 A 
ATOM     19  C   UNL     1     -47.114  -4.583 -32.545  0.00  0.00    +0.000 A 
BRANCH  17  20
ATOM     20  C   UNL     1     -44.020  -2.703 -32.496  0.00  0.00    +0.000 A 
ATOM     21  C   UNL     1     -42.883  -3.218 -33.147  0.00  0.00    +0.000 A 
ATOM     22  C   UNL     1     -41.763  -2.420 -33.378  0.00  0.00    +0.000 A 
ATOM     23  C   UNL     1     -41.758  -1.089 -32.964  0.00  0.00    +0.000 A 
ATOM     24  F   UNL     1     -40.671  -0.313 -33.188  0.00  0.00    +0.000 F 
ATOM     25  C   UNL     1     -42.875  -0.556 -32.319  0.00  0.00    +0.000 A 
ATOM     26  C   UNL     1     -44.005  -1.346 -32.080  0.00  0.00    +0.000 A 
ATOM     27  C   UNL     1     -45.156  -0.694 -31.393  0.00  0.00    +0.000 C 
ENDBRANCH  17  20
ENDBRANCH  10  15
BRANCH   1  28
ATOM     28  C   UNL     1     -45.535 -10.956 -29.005  0.00  0.00    +0.000 C 
ATOM     29  O   UNL     1     -44.898 -10.905 -30.093  0.00  0.00    +0.000 OA
BRANCH  28  31
ATOM     30  C   UNL     1     -47.153 -12.788 -28.697  0.00  0.00    +0.000 C 
ATOM     31  O   UNL     1     -45.888 -12.189 -28.452  0.00  0.00    +0.000 OA
ENDBRANCH  28  31
ENDBRANCH   1  28
TORSDOF 4
ENDMDL
