MODEL 1
REMARK VINA RESULT:      -7.1      0.000      0.000
REMARK  Name = ZINC000018200371
REMARK  2 active torsions:
REMARK  status: ('A' for Active; 'I' for Inactive)
REMARK    1  A    between atoms: C_1  and  C_31
REMARK    2  A    between atoms: C_3  and  O_4
REMARK                            x       y       z     vdW  Elec       q    Type
REMARK                         _______ _______ _______ _____ _____    ______ ____
ROOT
ATOM      1  C   UNL     1     -46.171  -5.753 -32.150  0.00  0.00    +0.000 C 
ATOM      2  C   UNL     1     -46.384  -5.812 -30.669  0.00  0.00    +0.000 A 
ATOM      3  C   UNL     1     -47.054  -5.004 -29.786  0.00  0.00    +0.000 A 
ATOM      4  N   UNL     1     -46.930  -5.496 -28.534  0.00  0.00    +0.000 NA
ATOM      5  N   UNL     1     -46.196  -6.603 -28.594  0.00  0.00    +0.000 N 
ATOM      6  C   UNL     1     -45.869  -6.787 -29.885  0.00  0.00    +0.000 A 
ATOM      7  N   UNL     1     -45.105  -7.861 -30.418  0.00  0.00    +0.000 N 
ATOM      8  C   UNL     1     -44.915  -7.938 -31.842  0.00  0.00    +0.000 C 
ATOM      9  C   UNL     1     -45.410  -6.976 -32.679  0.00  0.00    +0.000 C 
ATOM     10  C   UNL     1     -45.271  -7.147 -34.147  0.00  0.00    +0.000 C 
ATOM     11  O   UNL     1     -45.789  -6.315 -34.938  0.00  0.00    +0.000 OA
ATOM     12  C   UNL     1     -44.490  -8.293 -34.718  0.00  0.00    +0.000 C 
ATOM     13  C   UNL     1     -44.499  -9.506 -33.790  0.00  0.00    +0.000 C 
ATOM     14  C   UNL     1     -43.487 -10.510 -34.299  0.00  0.00    +0.000 C 
ATOM     15  C   UNL     1     -45.869 -10.167 -33.791  0.00  0.00    +0.000 C 
ATOM     16  C   UNL     1     -44.105  -9.092 -32.371  0.00  0.00    +0.000 C 
ATOM     17  H   UNL     1     -45.940  -7.178 -27.837  0.00  0.00    +0.000 HD
ATOM     18  H   UNL     1     -44.713  -8.540 -29.823  0.00  0.00    +0.000 HD
ENDROOT
BRANCH   1  29
ATOM     19  C   UNL     1     -47.643  -3.609 -33.722  0.00  0.00    +0.000 C 
ATOM     20  C   UNL     1     -46.223  -3.450 -33.296  0.00  0.00    +0.000 A 
ATOM     21  N   UNL     1     -45.570  -2.304 -33.630  0.00  0.00    +0.000 NA
ATOM     22  C   UNL     1     -44.277  -2.099 -33.278  0.00  0.00    +0.000 A 
ATOM     23  C   UNL     1     -43.622  -0.915 -33.630  0.00  0.00    +0.000 A 
ATOM     24  C   UNL     1     -42.287  -0.722 -33.259  0.00  0.00    +0.000 A 
ATOM     25  C   UNL     1     -41.607  -1.710 -32.538  0.00  0.00    +0.000 A 
ATOM     26  C   UNL     1     -42.259  -2.896 -32.184  0.00  0.00    +0.000 A 
ATOM     27  C   UNL     1     -43.592  -3.092 -32.552  0.00  0.00    +0.000 A 
ATOM     28  N   UNL     1     -44.240  -4.237 -32.217  0.00  0.00    +0.000 NA
ATOM     29  C   UNL     1     -45.538  -4.448 -32.564  0.00  0.00    +0.000 A 
ENDBRANCH   1  29
BRANCH   3  30
ATOM     30  O   UNL     1     -47.756  -3.849 -30.105  0.00  0.00    +0.000 OA
ATOM     31  H   UNL     1     -47.309  -3.029 -30.163  0.00  0.00    +0.000 HD
ENDBRANCH   3  30
TORSDOF 2
ENDMDL
MODEL 2
REMARK VINA RESULT:      -6.7      2.400      4.777
REMARK  Name = ZINC000018200371
REMARK  2 active torsions:
REMARK  status: ('A' for Active; 'I' for Inactive)
REMARK    1  A    between atoms: C_1  and  C_31
REMARK    2  A    between atoms: C_3  and  O_4
REMARK                            x       y       z     vdW  Elec       q    Type
REMARK                         _______ _______ _______ _____ _____    ______ ____
ROOT
ATOM      1  C   UNL     1     -44.010  -6.523 -31.366  0.00  0.00    +0.000 C 
ATOM      2  C   UNL     1     -44.945  -7.017 -32.426  0.00  0.00    +0.000 A 
ATOM      3  C   UNL     1     -44.809  -7.216 -33.776  0.00  0.00    +0.000 A 
ATOM      4  N   UNL     1     -45.973  -7.669 -34.290  0.00  0.00    +0.000 NA
ATOM      5  N   UNL     1     -46.854  -7.767 -33.298  0.00  0.00    +0.000 N 
ATOM      6  C   UNL     1     -46.227  -7.371 -32.177  0.00  0.00    +0.000 A 
ATOM      7  N   UNL     1     -46.781  -7.331 -30.869  0.00  0.00    +0.000 N 
ATOM      8  C   UNL     1     -45.936  -6.948 -29.768  0.00  0.00    +0.000 C 
ATOM      9  C   UNL     1     -44.636  -6.577 -29.966  0.00  0.00    +0.000 C 
ATOM     10  C   UNL     1     -43.776  -6.282 -28.792  0.00  0.00    +0.000 C 
ATOM     11  O   UNL     1     -42.555  -6.016 -28.945  0.00  0.00    +0.000 OA
ATOM     12  C   UNL     1     -44.347  -6.266 -27.405  0.00  0.00    +0.000 C 
ATOM     13  C   UNL     1     -45.552  -7.196 -27.274  0.00  0.00    +0.000 C 
ATOM     14  C   UNL     1     -46.227  -6.927 -25.947  0.00  0.00    +0.000 C 
ATOM     15  C   UNL     1     -45.107  -8.650 -27.300  0.00  0.00    +0.000 C 
ATOM     16  C   UNL     1     -46.556  -6.923 -28.396  0.00  0.00    +0.000 C 
ATOM     17  H   UNL     1     -47.787  -8.070 -33.372  0.00  0.00    +0.000 HD
ATOM     18  H   UNL     1     -47.726  -7.561 -30.718  0.00  0.00    +0.000 HD
ENDROOT
BRANCH   1  29
ATOM     19  C   UNL     1     -41.126  -6.046 -32.198  0.00  0.00    +0.000 C 
ATOM     20  C   UNL     1     -42.118  -4.938 -32.095  0.00  0.00    +0.000 A 
ATOM     21  N   UNL     1     -41.709  -3.673 -32.380  0.00  0.00    +0.000 NA
ATOM     22  C   UNL     1     -42.559  -2.620 -32.300  0.00  0.00    +0.000 A 
ATOM     23  C   UNL     1     -42.121  -1.326 -32.598  0.00  0.00    +0.000 A 
ATOM     24  C   UNL     1     -43.013  -0.251 -32.509  0.00  0.00    +0.000 A 
ATOM     25  C   UNL     1     -44.341  -0.469 -32.123  0.00  0.00    +0.000 A 
ATOM     26  C   UNL     1     -44.783  -1.763 -31.825  0.00  0.00    +0.000 A 
ATOM     27  C   UNL     1     -43.895  -2.838 -31.913  0.00  0.00    +0.000 A 
ATOM     28  N   UNL     1     -44.308  -4.099 -31.627  0.00  0.00    +0.000 NA
ATOM     29  C   UNL     1     -43.461  -5.161 -31.708  0.00  0.00    +0.000 A 
ENDBRANCH   1  29
BRANCH   3  30
ATOM     30  O   UNL     1     -43.661  -6.989 -34.525  0.00  0.00    +0.000 OA
ATOM     31  H   UNL     1     -43.651  -7.189 -35.440  0.00  0.00    +0.000 HD
ENDBRANCH   3  30
TORSDOF 2
ENDMDL
MODEL 3
REMARK VINA RESULT:      -6.6     15.546     17.914
REMARK  Name = ZINC000018200371
REMARK  2 active torsions:
REMARK  status: ('A' for Active; 'I' for Inactive)
REMARK    1  A    between atoms: C_1  and  C_31
REMARK    2  A    between atoms: C_3  and  O_4
REMARK                            x       y       z     vdW  Elec       q    Type
REMARK                         _______ _______ _______ _____ _____    ______ ____
ROOT
ATOM      1  C   UNL     1     -43.142 -18.108 -20.242  0.00  0.00    +0.000 C 
ATOM      2  C   UNL     1     -43.157 -19.400 -19.486  0.00  0.00    +0.000 A 
ATOM      3  C   UNL     1     -42.251 -20.423 -19.360  0.00  0.00    +0.000 A 
ATOM      4  N   UNL     1     -42.759 -21.385 -18.561  0.00  0.00    +0.000 NA
ATOM      5  N   UNL     1     -43.971 -21.003 -18.168  0.00  0.00    +0.000 N 
ATOM      6  C   UNL     1     -44.204 -19.804 -18.730  0.00  0.00    +0.000 A 
ATOM      7  N   UNL     1     -45.372 -19.009 -18.570  0.00  0.00    +0.000 N 
ATOM      8  C   UNL     1     -45.418 -17.712 -19.191  0.00  0.00    +0.000 C 
ATOM      9  C   UNL     1     -44.390 -17.257 -19.968  0.00  0.00    +0.000 C 
ATOM     10  C   UNL     1     -44.441 -15.877 -20.510  0.00  0.00    +0.000 C 
ATOM     11  O   UNL     1     -43.469 -15.409 -21.161  0.00  0.00    +0.000 OA
ATOM     12  C   UNL     1     -45.658 -15.021 -20.321  0.00  0.00    +0.000 C 
ATOM     13  C   UNL     1     -46.419 -15.386 -19.048  0.00  0.00    +0.000 C 
ATOM     14  C   UNL     1     -47.755 -14.676 -19.064  0.00  0.00    +0.000 C 
ATOM     15  C   UNL     1     -45.650 -14.931 -17.818  0.00  0.00    +0.000 C 
ATOM     16  C   UNL     1     -46.668 -16.895 -18.995  0.00  0.00    +0.000 C 
ATOM     17  H   UNL     1     -44.581 -21.502 -17.579  0.00  0.00    +0.000 HD
ATOM     18  H   UNL     1     -46.134 -19.340 -18.043  0.00  0.00    +0.000 HD
ENDROOT
BRANCH   1  29
ATOM     19  C   UNL     1     -40.514 -17.458 -21.623  0.00  0.00    +0.000 C 
ATOM     20  C   UNL     1     -41.678 -18.032 -22.357  0.00  0.00    +0.000 A 
ATOM     21  N   UNL     1     -41.553 -18.265 -23.691  0.00  0.00    +0.000 NA
ATOM     22  C   UNL     1     -42.575 -18.780 -24.418  0.00  0.00    +0.000 A 
ATOM     23  C   UNL     1     -42.428 -19.013 -25.789  0.00  0.00    +0.000 A 
ATOM     24  C   UNL     1     -43.494 -19.544 -26.523  0.00  0.00    +0.000 A 
ATOM     25  C   UNL     1     -44.706 -19.841 -25.888  0.00  0.00    +0.000 A 
ATOM     26  C   UNL     1     -44.857 -19.609 -24.517  0.00  0.00    +0.000 A 
ATOM     27  C   UNL     1     -43.794 -19.079 -23.781  0.00  0.00    +0.000 A 
ATOM     28  N   UNL     1     -43.924 -18.848 -22.450  0.00  0.00    +0.000 NA
ATOM     29  C   UNL     1     -42.901 -18.334 -21.713  0.00  0.00    +0.000 A 
ENDBRANCH   1  29
BRANCH   3  30
ATOM     30  O   UNL     1     -40.999 -20.484 -19.958  0.00  0.00    +0.000 OA
ATOM     31  H   UNL     1     -40.909 -20.323 -20.876  0.00  0.00    +0.000 HD
ENDBRANCH   3  30
TORSDOF 2
ENDMDL
