MODEL 1
REMARK VINA RESULT:      -7.3      0.000      0.000
REMARK  Name = ZINC000408624461
REMARK  4 active torsions:
REMARK  status: ('A' for Active; 'I' for Inactive)
REMARK    1  A    between atoms: C_1  and  N_2
REMARK    2  A    between atoms: C_1  and  C_17
REMARK    3  A    between atoms: N_18  and  C_20
REMARK    4  A    between atoms: C_25  and  N_27
REMARK                            x       y       z     vdW  Elec       q    Type
REMARK                         _______ _______ _______ _____ _____    ______ ____
ROOT
ATOM      1  C   UNL     1     -46.633  -6.461 -30.818  0.00  0.00    +0.000 C 
ENDROOT
BRANCH   1   2
ATOM      2  N   UNL     1     -45.725  -5.627 -31.591  0.00  0.00    +0.000 N 
ATOM      3  C   UNL     1     -45.996  -5.045 -32.852  0.00  0.00    +0.000 C 
ATOM      4  O   UNL     1     -47.033  -5.297 -33.521  0.00  0.00    +0.000 OA
ATOM      5  C   UNL     1     -44.943  -4.069 -33.281  0.00  0.00    +0.000 C 
ATOM      6  C   UNL     1     -43.909  -4.096 -32.096  0.00  0.00    +0.000 C 
ATOM      7  C   UNL     1     -44.509  -5.070 -31.127  0.00  0.00    +0.000 C 
ATOM      8  O   UNL     1     -44.019  -5.330 -29.996  0.00  0.00    +0.000 OA
ATOM      9  C   UNL     1     -43.759  -2.665 -31.504  0.00  0.00    +0.000 C 
ATOM     10  C   UNL     1     -45.154  -2.191 -31.103  0.00  0.00    +0.000 C 
ATOM     11  C   UNL     1     -46.049  -2.175 -32.106  0.00  0.00    +0.000 C 
ATOM     12  C   UNL     1     -45.502  -2.628 -33.459  0.00  0.00    +0.000 C 
ATOM     13  C   UNL     1     -44.247  -1.773 -33.850  0.00  0.00    +0.000 C 
ATOM     14  C   UNL     1     -43.987  -0.518 -33.018  0.00  0.00    +0.000 C 
ATOM     15  C   UNL     1     -43.212  -1.795 -32.690  0.00  0.00    +0.000 C 
ENDBRANCH   1   2
BRANCH   1  17
ATOM     16  O   UNL     1     -47.756  -4.672 -29.740  0.00  0.00    +0.000 OA
ATOM     17  C   UNL     1     -47.098  -5.735 -29.597  0.00  0.00    +0.000 C 
ATOM     18  N   UNL     1     -46.828  -6.210 -28.270  0.00  0.00    +0.000 N 
ATOM     19  H   UNL     1     -47.113  -5.618 -27.536  0.00  0.00    +0.000 HD
BRANCH  18  20
ATOM     20  C   UNL     1     -46.196  -7.435 -27.874  0.00  0.00    +0.000 A 
ATOM     21  C   UNL     1     -44.876  -7.395 -27.418  0.00  0.00    +0.000 A 
ATOM     22  C   UNL     1     -44.230  -8.570 -27.023  0.00  0.00    +0.000 A 
ATOM     23  C   UNL     1     -44.894  -9.799 -27.081  0.00  0.00    +0.000 A 
ATOM     24 CL   UNL     1     -44.040 -11.250 -26.583  0.00  0.00    +0.000 Cl
ATOM     25  C   UNL     1     -46.220  -9.855 -27.539  0.00  0.00    +0.000 A 
ATOM     26  C   UNL     1     -46.862  -8.667 -27.923  0.00  0.00    +0.000 A 
BRANCH  25  27
ATOM     27  N   UNL     1     -46.895 -11.118 -27.621  0.00  0.00    +0.000 N 
ATOM     28  O   UNL     1     -47.328 -11.689 -26.598  0.00  0.00    +0.000 OA
ATOM     29  O   UNL     1     -47.373 -11.748 -26.495  0.00  0.00    +0.000 OA
ENDBRANCH  25  27
ENDBRANCH  18  20
ENDBRANCH   1  17
TORSDOF 4
ENDMDL
MODEL 2
REMARK VINA RESULT:      -7.1      1.864      2.716
REMARK  Name = ZINC000408624461
REMARK  4 active torsions:
REMARK  status: ('A' for Active; 'I' for Inactive)
REMARK    1  A    between atoms: C_1  and  N_2
REMARK    2  A    between atoms: C_1  and  C_17
REMARK    3  A    between atoms: N_18  and  C_20
REMARK    4  A    between atoms: C_25  and  N_27
REMARK                            x       y       z     vdW  Elec       q    Type
REMARK                         _______ _______ _______ _____ _____    ______ ____
ROOT
ATOM      1  C   UNL     1     -47.186  -6.183 -31.489  0.00  0.00    +0.000 C 
ENDROOT
BRANCH   1   2
ATOM      2  N   UNL     1     -46.896  -4.805 -31.852  0.00  0.00    +0.000 N 
ATOM      3  C   UNL     1     -46.569  -3.757 -30.959  0.00  0.00    +0.000 C 
ATOM      4  O   UNL     1     -46.621  -3.877 -29.706  0.00  0.00    +0.000 OA
ATOM      5  C   UNL     1     -46.114  -2.514 -31.660  0.00  0.00    +0.000 C 
ATOM      6  C   UNL     1     -46.196  -2.898 -33.183  0.00  0.00    +0.000 C 
ATOM      7  C   UNL     1     -46.669  -4.320 -33.164  0.00  0.00    +0.000 C 
ATOM      8  O   UNL     1     -46.802  -5.032 -34.194  0.00  0.00    +0.000 OA
ATOM      9  C   UNL     1     -44.794  -2.734 -33.838  0.00  0.00    +0.000 C 
ATOM     10  C   UNL     1     -43.815  -3.585 -33.032  0.00  0.00    +0.000 C 
ATOM     11  C   UNL     1     -43.746  -3.273 -31.726  0.00  0.00    +0.000 C 
ATOM     12  C   UNL     1     -44.654  -2.122 -31.294  0.00  0.00    +0.000 C 
ATOM     13  C   UNL     1     -44.366  -0.849 -32.163  0.00  0.00    +0.000 C 
ATOM     14  C   UNL     1     -43.105  -0.878 -33.025  0.00  0.00    +0.000 C 
ATOM     15  C   UNL     1     -44.450  -1.212 -33.673  0.00  0.00    +0.000 C 
ENDBRANCH   1   2
BRANCH   1  17
ATOM     16  O   UNL     1     -45.375  -7.147 -32.678  0.00  0.00    +0.000 OA
ATOM     17  C   UNL     1     -45.948  -7.016 -31.564  0.00  0.00    +0.000 C 
ATOM     18  N   UNL     1     -45.383  -7.663 -30.414  0.00  0.00    +0.000 N 
ATOM     19  H   UNL     1     -44.610  -8.249 -30.587  0.00  0.00    +0.000 HD
BRANCH  18  20
ATOM     20  C   UNL     1     -45.801  -7.568 -29.045  0.00  0.00    +0.000 A 
ATOM     21  C   UNL     1     -45.415  -6.452 -28.299  0.00  0.00    +0.000 A 
ATOM     22  C   UNL     1     -45.806  -6.326 -26.963  0.00  0.00    +0.000 A 
ATOM     23  C   UNL     1     -46.584  -7.317 -26.355  0.00  0.00    +0.000 A 
ATOM     24 CL   UNL     1     -47.044  -7.121 -24.672  0.00  0.00    +0.000 Cl
ATOM     25  C   UNL     1     -46.978  -8.445 -27.092  0.00  0.00    +0.000 A 
ATOM     26  C   UNL     1     -46.588  -8.555 -28.437  0.00  0.00    +0.000 A 
BRANCH  25  27
ATOM     27  N   UNL     1     -47.756  -9.473 -26.463  0.00  0.00    +0.000 N 
ATOM     28  O   UNL     1     -47.212 -10.429 -25.875  0.00  0.00    +0.000 OA
ATOM     29  O   UNL     1     -47.157 -10.527 -25.814  0.00  0.00    +0.000 OA
ENDBRANCH  25  27
ENDBRANCH  18  20
ENDBRANCH   1  17
TORSDOF 4
ENDMDL
MODEL 3
REMARK VINA RESULT:      -7.0     12.239     14.296
REMARK  Name = ZINC000408624461
REMARK  4 active torsions:
REMARK  status: ('A' for Active; 'I' for Inactive)
REMARK    1  A    between atoms: C_1  and  N_2
REMARK    2  A    between atoms: C_1  and  C_17
REMARK    3  A    between atoms: N_18  and  C_20
REMARK    4  A    between atoms: C_25  and  N_27
REMARK                            x       y       z     vdW  Elec       q    Type
REMARK                         _______ _______ _______ _____ _____    ______ ____
ROOT
ATOM      1  C   UNL     1     -45.653 -15.838 -19.461  0.00  0.00    +0.000 C 
ENDROOT
BRANCH   1   2
ATOM      2  N   UNL     1     -46.286 -14.555 -19.197  0.00  0.00    +0.000 N 
ATOM      3  C   UNL     1     -46.278 -13.857 -17.965  0.00  0.00    +0.000 C 
ATOM      4  O   UNL     1     -45.817 -14.344 -16.899  0.00  0.00    +0.000 OA
ATOM      5  C   UNL     1     -46.830 -12.469 -18.078  0.00  0.00    +0.000 C 
ATOM      6  C   UNL     1     -47.221 -12.349 -19.597  0.00  0.00    +0.000 C 
ATOM      7  C   UNL     1     -46.826 -13.677 -20.169  0.00  0.00    +0.000 C 
ATOM      8  O   UNL     1     -46.910 -13.971 -21.390  0.00  0.00    +0.000 OA
ATOM      9  C   UNL     1     -46.453 -11.159 -20.240  0.00  0.00    +0.000 C 
ATOM     10  C   UNL     1     -44.964 -11.396 -19.997  0.00  0.00    +0.000 C 
ATOM     11  C   UNL     1     -44.620 -11.511 -18.702  0.00  0.00    +0.000 C 
ATOM     12  C   UNL     1     -45.781 -11.378 -17.717  0.00  0.00    +0.000 C 
ATOM     13  C   UNL     1     -46.537 -10.024 -17.950  0.00  0.00    +0.000 C 
ATOM     14  C   UNL     1     -45.847  -9.001 -18.851  0.00  0.00    +0.000 C 
ATOM     15  C   UNL     1     -46.936  -9.894 -19.447  0.00  0.00    +0.000 C 
ENDBRANCH   1   2
BRANCH   1  17
ATOM     16  O   UNL     1     -47.581 -16.780 -18.451  0.00  0.00    +0.000 OA
ATOM     17  C   UNL     1     -46.626 -16.953 -19.254  0.00  0.00    +0.000 C 
ATOM     18  N   UNL     1     -46.518 -18.208 -19.941  0.00  0.00    +0.000 N 
ATOM     19  H   UNL     1     -47.166 -18.901 -19.676  0.00  0.00    +0.000 HD
BRANCH  18  20
ATOM     20  C   UNL     1     -45.586 -18.584 -20.964  0.00  0.00    +0.000 A 
ATOM     21  C   UNL     1     -44.330 -19.067 -20.587  0.00  0.00    +0.000 A 
ATOM     22  C   UNL     1     -43.398 -19.445 -21.557  0.00  0.00    +0.000 A 
ATOM     23  C   UNL     1     -43.708 -19.341 -22.917  0.00  0.00    +0.000 A 
ATOM     24 CL   UNL     1     -42.503 -19.818 -24.101  0.00  0.00    +0.000 Cl
ATOM     25  C   UNL     1     -44.965 -18.856 -23.312  0.00  0.00    +0.000 A 
ATOM     26  C   UNL     1     -45.897 -18.489 -22.327  0.00  0.00    +0.000 A 
BRANCH  25  27
ATOM     27  N   UNL     1     -45.275 -18.727 -24.706  0.00  0.00    +0.000 N 
ATOM     28  O   UNL     1     -45.823 -19.656 -25.335  0.00  0.00    +0.000 OA
ATOM     29  O   UNL     1     -45.880 -19.749 -25.401  0.00  0.00    +0.000 OA
ENDBRANCH  25  27
ENDBRANCH  18  20
ENDBRANCH   1  17
TORSDOF 4
ENDMDL
