MODEL 1
REMARK VINA RESULT:      -5.9      0.000      0.000
REMARK  Name = ZINC000005372514 ZINC05372514 PubChem-92261926
REMARK  9 active torsions:
REMARK  status: ('A' for Active; 'I' for Inactive)
REMARK    1  A    between atoms: N_14  and  C_20
REMARK    2  A    between atoms: C_20  and  C_21
REMARK    3  A    between atoms: C_21  and  O_22
REMARK    4  A    between atoms: C_21  and  C_24
REMARK    5  A    between atoms: C_24  and  O_25
REMARK    6  A    between atoms: C_24  and  C_27
REMARK    7  A    between atoms: C_27  and  O_28
REMARK    8  A    between atoms: C_27  and  C_30
REMARK    9  A    between atoms: C_30  and  O_31
REMARK                            x       y       z     vdW  Elec       q    Type
REMARK                         _______ _______ _______ _____ _____    ______ ____
ROOT
ATOM      1  C   UNL     1     -44.497 -16.466 -26.762  0.00  0.00    +0.000 C 
ATOM      2  C   UNL     1     -44.786 -16.656 -25.311  0.00  0.00    +0.000 A 
ATOM      3  C   UNL     1     -45.158 -15.546 -24.550  0.00  0.00    +0.000 A 
ATOM      4  C   UNL     1     -45.439 -15.680 -23.188  0.00  0.00    +0.000 A 
ATOM      5  C   UNL     1     -45.799 -14.552 -22.459  0.00  0.00    +0.000 A 
ATOM      6  C   UNL     1     -46.077 -14.666 -21.101  0.00  0.00    +0.000 A 
ATOM      7  C   UNL     1     -46.438 -13.568 -20.313  0.00  0.00    +0.000 A 
ATOM      8  O   UNL     1     -46.533 -12.416 -20.816  0.00  0.00    +0.000 OA
ATOM      9  N   UNL     1     -46.690 -13.741 -18.988  0.00  0.00    +0.000 N 
ATOM     10  C   UNL     1     -46.606 -14.954 -18.374  0.00  0.00    +0.000 A 
ATOM     11  O   UNL     1     -46.850 -15.049 -17.144  0.00  0.00    +0.000 OA
ATOM     12  C   UNL     1     -46.253 -16.096 -19.097  0.00  0.00    +0.000 A 
ATOM     13  C   UNL     1     -45.983 -16.001 -20.467  0.00  0.00    +0.000 A 
ATOM     14  N   UNL     1     -45.634 -17.092 -21.221  0.00  0.00    +0.000 N 
ATOM     15  C   UNL     1     -45.355 -16.949 -22.561  0.00  0.00    +0.000 A 
ATOM     16  C   UNL     1     -44.975 -18.055 -23.342  0.00  0.00    +0.000 A 
ATOM     17  C   UNL     1     -44.694 -17.920 -24.703  0.00  0.00    +0.000 A 
ATOM     18  C   UNL     1     -44.300 -19.131 -25.476  0.00  0.00    +0.000 C 
ATOM     19  H   UNL     1     -46.943 -12.957 -18.449  0.00  0.00    +0.000 HD
ENDROOT
BRANCH  14  20
ATOM     20  C   UNL     1     -45.564 -18.417 -20.592  0.00  0.00    +0.000 C 
BRANCH  20  21
ATOM     21  C   UNL     1     -44.112 -18.805 -20.304  0.00  0.00    +0.000 C 
BRANCH  21  22
ATOM     22  O   UNL     1     -43.802 -20.002 -20.951  0.00  0.00    +0.000 OA
ATOM     23  H   UNL     1     -42.851 -20.028 -21.144  0.00  0.00    +0.000 HD
ENDBRANCH  21  22
BRANCH  21  24
ATOM     24  C   UNL     1     -43.837 -18.950 -18.804  0.00  0.00    +0.000 C 
BRANCH  24  25
ATOM     25  O   UNL     1     -43.269 -17.788 -18.277  0.00  0.00    +0.000 OA
ATOM     26  H   UNL     1     -43.901 -17.362 -17.677  0.00  0.00    +0.000 HD
ENDBRANCH  24  25
BRANCH  24  27
ATOM     27  C   UNL     1     -42.992 -20.173 -18.434  0.00  0.00    +0.000 C 
BRANCH  27  28
ATOM     28  O   UNL     1     -43.781 -21.268 -18.072  0.00  0.00    +0.000 OA
ATOM     29  H   UNL     1     -43.345 -22.087 -18.355  0.00  0.00    +0.000 HD
ENDBRANCH  27  28
BRANCH  27  30
ATOM     30  C   UNL     1     -41.954 -19.865 -17.360  0.00  0.00    +0.000 C 
BRANCH  30  31
ATOM     31  O   UNL     1     -42.566 -19.436 -16.180  0.00  0.00    +0.000 OA
ATOM     32  H   UNL     1     -41.887 -19.152 -15.548  0.00  0.00    +0.000 HD
ENDBRANCH  30  31
ENDBRANCH  27  30
ENDBRANCH  24  27
ENDBRANCH  21  24
ENDBRANCH  20  21
ENDBRANCH  14  20
TORSDOF 9
ENDMDL
MODEL 2
REMARK VINA RESULT:      -5.9      3.294      8.079
REMARK  Name = ZINC000005372514 ZINC05372514 PubChem-92261926
REMARK  9 active torsions:
REMARK  status: ('A' for Active; 'I' for Inactive)
REMARK    1  A    between atoms: N_14  and  C_20
REMARK    2  A    between atoms: C_20  and  C_21
REMARK    3  A    between atoms: C_21  and  O_22
REMARK    4  A    between atoms: C_21  and  C_24
REMARK    5  A    between atoms: C_24  and  O_25
REMARK    6  A    between atoms: C_24  and  C_27
REMARK    7  A    between atoms: C_27  and  O_28
REMARK    8  A    between atoms: C_27  and  C_30
REMARK    9  A    between atoms: C_30  and  O_31
REMARK                            x       y       z     vdW  Elec       q    Type
REMARK                         _______ _______ _______ _____ _____    ______ ____
ROOT
ATOM      1  C   UNL     1     -45.914 -14.883 -18.119  0.00  0.00    +0.000 C 
ATOM      2  C   UNL     1     -45.904 -15.233 -19.568  0.00  0.00    +0.000 A 
ATOM      3  C   UNL     1     -45.302 -16.429 -19.966  0.00  0.00    +0.000 A 
ATOM      4  C   UNL     1     -45.271 -16.795 -21.314  0.00  0.00    +0.000 A 
ATOM      5  C   UNL     1     -44.658 -17.990 -21.675  0.00  0.00    +0.000 A 
ATOM      6  C   UNL     1     -44.614 -18.367 -23.012  0.00  0.00    +0.000 A 
ATOM      7  C   UNL     1     -44.005 -19.553 -23.439  0.00  0.00    +0.000 A 
ATOM      8  O   UNL     1     -43.471 -20.339 -22.610  0.00  0.00    +0.000 OA
ATOM      9  N   UNL     1     -43.986 -19.865 -24.762  0.00  0.00    +0.000 N 
ATOM     10  C   UNL     1     -44.540 -19.065 -25.716  0.00  0.00    +0.000 A 
ATOM     11  O   UNL     1     -44.489 -19.408 -26.925  0.00  0.00    +0.000 OA
ATOM     12  C   UNL     1     -45.167 -17.867 -25.365  0.00  0.00    +0.000 A 
ATOM     13  C   UNL     1     -45.232 -17.478 -24.022  0.00  0.00    +0.000 A 
ATOM     14  N   UNL     1     -45.837 -16.312 -23.627  0.00  0.00    +0.000 N 
ATOM     15  C   UNL     1     -45.858 -15.958 -22.297  0.00  0.00    +0.000 A 
ATOM     16  C   UNL     1     -46.456 -14.756 -21.879  0.00  0.00    +0.000 A 
ATOM     17  C   UNL     1     -46.485 -14.390 -20.532  0.00  0.00    +0.000 A 
ATOM     18  C   UNL     1     -47.137 -13.105 -20.153  0.00  0.00    +0.000 C 
ATOM     19  H   UNL     1     -43.554 -20.703 -25.044  0.00  0.00    +0.000 HD
ENDROOT
BRANCH  14  20
ATOM     20  C   UNL     1     -46.468 -15.445 -24.629  0.00  0.00    +0.000 C 
BRANCH  20  21
ATOM     21  C   UNL     1     -45.415 -14.624 -25.377  0.00  0.00    +0.000 C 
BRANCH  21  22
ATOM     22  O   UNL     1     -45.122 -13.462 -24.663  0.00  0.00    +0.000 OA
ATOM     23  H   UNL     1     -44.263 -13.559 -24.224  0.00  0.00    +0.000 HD
ENDBRANCH  21  22
BRANCH  21  24
ATOM     24  C   UNL     1     -45.867 -14.254 -26.793  0.00  0.00    +0.000 C 
BRANCH  24  25
ATOM     25  O   UNL     1     -44.861 -14.503 -27.729  0.00  0.00    +0.000 OA
ATOM     26  H   UNL     1     -45.162 -14.228 -28.609  0.00  0.00    +0.000 HD
ENDBRANCH  24  25
BRANCH  24  27
ATOM     27  C   UNL     1     -46.382 -12.818 -26.933  0.00  0.00    +0.000 C 
BRANCH  27  28
ATOM     28  O   UNL     1     -47.680 -12.773 -27.448  0.00  0.00    +0.000 OA
ATOM     29  H   UNL     1     -47.714 -13.266 -28.284  0.00  0.00    +0.000 HD
ENDBRANCH  27  28
BRANCH  27  30
ATOM     30  C   UNL     1     -45.440 -11.933 -27.742  0.00  0.00    +0.000 C 
BRANCH  30  31
ATOM     31  O   UNL     1     -44.278 -11.646 -27.021  0.00  0.00    +0.000 OA
ATOM     32  H   UNL     1     -44.505 -11.118 -26.240  0.00  0.00    +0.000 HD
ENDBRANCH  30  31
ENDBRANCH  27  30
ENDBRANCH  24  27
ENDBRANCH  21  24
ENDBRANCH  20  21
ENDBRANCH  14  20
TORSDOF 9
ENDMDL
MODEL 3
REMARK VINA RESULT:      -5.7      8.807     11.986
REMARK  Name = ZINC000005372514 ZINC05372514 PubChem-92261926
REMARK  9 active torsions:
REMARK  status: ('A' for Active; 'I' for Inactive)
REMARK    1  A    between atoms: N_14  and  C_20
REMARK    2  A    between atoms: C_20  and  C_21
REMARK    3  A    between atoms: C_21  and  O_22
REMARK    4  A    between atoms: C_21  and  C_24
REMARK    5  A    between atoms: C_24  and  O_25
REMARK    6  A    between atoms: C_24  and  C_27
REMARK    7  A    between atoms: C_27  and  O_28
REMARK    8  A    between atoms: C_27  and  C_30
REMARK    9  A    between atoms: C_30  and  O_31
REMARK                            x       y       z     vdW  Elec       q    Type
REMARK                         _______ _______ _______ _____ _____    ______ ____
ROOT
ATOM      1  C   UNL     1     -47.413  -3.456 -26.471  0.00  0.00    +0.000 C 
ATOM      2  C   UNL     1     -47.059  -4.836 -26.910  0.00  0.00    +0.000 A 
ATOM      3  C   UNL     1     -47.129  -5.146 -28.270  0.00  0.00    +0.000 A 
ATOM      4  C   UNL     1     -46.805  -6.427 -28.725  0.00  0.00    +0.000 A 
ATOM      5  C   UNL     1     -46.892  -6.703 -30.085  0.00  0.00    +0.000 A 
ATOM      6  C   UNL     1     -46.579  -7.974 -30.554  0.00  0.00    +0.000 A 
ATOM      7  C   UNL     1     -46.654  -8.314 -31.910  0.00  0.00    +0.000 A 
ATOM      8  O   UNL     1     -47.008  -7.463 -32.770  0.00  0.00    +0.000 OA
ATOM      9  N   UNL     1     -46.343  -9.576 -32.307  0.00  0.00    +0.000 N 
ATOM     10  C   UNL     1     -45.954 -10.549 -31.436  0.00  0.00    +0.000 A 
ATOM     11  O   UNL     1     -45.681 -11.699 -31.866  0.00  0.00    +0.000 OA
ATOM     12  C   UNL     1     -45.855 -10.282 -30.069  0.00  0.00    +0.000 A 
ATOM     13  C   UNL     1     -46.154  -9.005 -29.581  0.00  0.00    +0.000 A 
ATOM     14  N   UNL     1     -46.071  -8.693 -28.248  0.00  0.00    +0.000 N 
ATOM     15  C   UNL     1     -46.396  -7.430 -27.810  0.00  0.00    +0.000 A 
ATOM     16  C   UNL     1     -46.335  -7.101 -26.443  0.00  0.00    +0.000 A 
ATOM     17  C   UNL     1     -46.660  -5.821 -25.990  0.00  0.00    +0.000 A 
ATOM     18  C   UNL     1     -46.573  -5.535 -24.530  0.00  0.00    +0.000 C 
ATOM     19  H   UNL     1     -46.401  -9.798 -33.265  0.00  0.00    +0.000 HD
ENDROOT
BRANCH  14  20
ATOM     20  C   UNL     1     -45.627  -9.713 -27.289  0.00  0.00    +0.000 C 
BRANCH  20  21
ATOM     21  C   UNL     1     -46.811 -10.548 -26.799  0.00  0.00    +0.000 C 
BRANCH  21  22
ATOM     22  O   UNL     1     -47.068 -10.269 -25.457  0.00  0.00    +0.000 OA
ATOM     23  H   UNL     1     -47.250  -9.322 -25.352  0.00  0.00    +0.000 HD
ENDBRANCH  21  22
BRANCH  21  24
ATOM     24  C   UNL     1     -46.570 -12.052 -26.970  0.00  0.00    +0.000 C 
BRANCH  24  25
ATOM     25  O   UNL     1     -47.722 -12.703 -27.418  0.00  0.00    +0.000 OA
ATOM     26  H   UNL     1     -47.897 -13.474 -26.855  0.00  0.00    +0.000 HD
ENDBRANCH  24  25
BRANCH  24  27
ATOM     27  C   UNL     1     -46.015 -12.746 -25.723  0.00  0.00    +0.000 C 
BRANCH  27  28
ATOM     28  O   UNL     1     -44.796 -12.198 -25.315  0.00  0.00    +0.000 OA
ATOM     29  H   UNL     1     -44.701 -12.300 -24.355  0.00  0.00    +0.000 HD
ENDBRANCH  27  28
BRANCH  27  30
ATOM     30  C   UNL     1     -45.907 -14.258 -25.892  0.00  0.00    +0.000 C 
BRANCH  30  31
ATOM     31  O   UNL     1     -46.957 -14.911 -25.243  0.00  0.00    +0.000 OA
ATOM     32  H   UNL     1     -47.364 -15.550 -25.848  0.00  0.00    +0.000 HD
ENDBRANCH  30  31
ENDBRANCH  27  30
ENDBRANCH  24  27
ENDBRANCH  21  24
ENDBRANCH  20  21
ENDBRANCH  14  20
TORSDOF 9
ENDMDL
