MODEL 1
REMARK VINA RESULT:      -7.9      0.000      0.000
REMARK  Name = ZINC000096117524
REMARK  4 active torsions:
REMARK  status: ('A' for Active; 'I' for Inactive)
REMARK    1  A    between atoms: C_4  and  C_30
REMARK    2  A    between atoms: C_8  and  O_9
REMARK    3  A    between atoms: C_10  and  O_11
REMARK    4  A    between atoms: C_14  and  C_21
REMARK                            x       y       z     vdW  Elec       q    Type
REMARK                         _______ _______ _______ _____ _____    ______ ____
ROOT
ATOM      1  O   UNL     1     -47.016  -3.855 -31.444  0.00  0.00    +0.000 OA
ATOM      2  C   UNL     1     -47.014  -4.568 -30.405  0.00  0.00    +0.000 A 
ATOM      3  C   UNL     1     -47.076  -3.940 -29.168  0.00  0.00    +0.000 A 
ATOM      4  C   UNL     1     -47.081  -4.712 -28.004  0.00  0.00    +0.000 A 
ATOM      5  O   UNL     1     -47.012  -6.039 -28.092  0.00  0.00    +0.000 OA
ATOM      6  C   UNL     1     -46.937  -6.698 -29.249  0.00  0.00    +0.000 A 
ATOM      7  C   UNL     1     -46.956  -5.975 -30.471  0.00  0.00    +0.000 A 
ATOM      8  C   UNL     1     -46.936  -6.677 -31.694  0.00  0.00    +0.000 A 
ATOM      9  C   UNL     1     -46.929  -8.072 -31.699  0.00  0.00    +0.000 A 
ATOM     10  C   UNL     1     -46.902  -8.788 -30.501  0.00  0.00    +0.000 A 
ATOM     11  C   UNL     1     -46.843  -8.112 -29.259  0.00  0.00    +0.000 A 
ATOM     12  C   UNL     1     -46.825  -8.945 -27.971  0.00  0.00    +0.000 C 
ATOM     13  C   UNL     1     -46.263 -10.356 -28.177  0.00  0.00    +0.000 C 
ATOM     14  C   UNL     1     -46.803 -10.969 -29.418  0.00  0.00    +0.000 C 
ATOM     15  O   UNL     1     -47.088 -12.194 -29.449  0.00  0.00    +0.000 OA
ATOM     16  O   UNL     1     -46.965 -10.185 -30.556  0.00  0.00    +0.000 OA
ENDROOT
BRANCH  12  17
ATOM     17  C   UNL     1     -46.076  -8.324 -26.823  0.00  0.00    +0.000 A 
ATOM     18  C   UNL     1     -46.698  -8.284 -25.570  0.00  0.00    +0.000 A 
ATOM     19  C   UNL     1     -46.023  -7.762 -24.464  0.00  0.00    +0.000 A 
ATOM     20  C   UNL     1     -44.724  -7.272 -24.602  0.00  0.00    +0.000 A 
ATOM     21  F   UNL     1     -44.080  -6.760 -23.526  0.00  0.00    +0.000 F 
ATOM     22  C   UNL     1     -44.089  -7.314 -25.850  0.00  0.00    +0.000 A 
ATOM     23  F   UNL     1     -42.823  -6.845 -25.981  0.00  0.00    +0.000 F 
ATOM     24  C   UNL     1     -44.756  -7.848 -26.959  0.00  0.00    +0.000 A 
ATOM     25  F   UNL     1     -44.122  -7.903 -28.157  0.00  0.00    +0.000 F 
ENDBRANCH  12  17
BRANCH   4  26
ATOM     26  C   UNL     1     -47.164  -4.065 -26.679  0.00  0.00    +0.000 A 
ATOM     27  C   UNL     1     -47.260  -2.670 -26.586  0.00  0.00    +0.000 A 
ATOM     28  C   UNL     1     -47.339  -2.045 -25.338  0.00  0.00    +0.000 A 
ATOM     29  C   UNL     1     -47.322  -2.811 -24.170  0.00  0.00    +0.000 A 
ATOM     30  C   UNL     1     -47.223  -4.202 -24.250  0.00  0.00    +0.000 A 
ATOM     31  C   UNL     1     -47.144  -4.827 -25.498  0.00  0.00    +0.000 A 
ENDBRANCH   4  26
BRANCH   8  32
ATOM     32  O   UNL     1     -46.944  -6.005 -32.913  0.00  0.00    +0.000 OA
ATOM     33  H   UNL     1     -46.158  -5.609 -33.236  0.00  0.00    +0.000 HD
ENDBRANCH   8  32
BRANCH   9  34
ATOM     34  O   UNL     1     -46.953  -8.757 -32.910  0.00  0.00    +0.000 OA
ATOM     35  H   UNL     1     -47.641  -8.596 -33.525  0.00  0.00    +0.000 HD
ENDBRANCH   9  34
TORSDOF 4
ENDMDL
MODEL 2
REMARK VINA RESULT:      -7.7      8.794     11.303
REMARK  Name = ZINC000096117524
REMARK  4 active torsions:
REMARK  status: ('A' for Active; 'I' for Inactive)
REMARK    1  A    between atoms: C_4  and  C_30
REMARK    2  A    between atoms: C_8  and  O_9
REMARK    3  A    between atoms: C_10  and  O_11
REMARK    4  A    between atoms: C_14  and  C_21
REMARK                            x       y       z     vdW  Elec       q    Type
REMARK                         _______ _______ _______ _____ _____    ______ ____
ROOT
ATOM      1  O   UNL     1     -45.824 -11.960 -24.135  0.00  0.00    +0.000 OA
ATOM      2  C   UNL     1     -45.825 -13.090 -23.577  0.00  0.00    +0.000 A 
ATOM      3  C   UNL     1     -46.133 -13.163 -22.225  0.00  0.00    +0.000 A 
ATOM      4  C   UNL     1     -46.146 -14.406 -21.589  0.00  0.00    +0.000 A 
ATOM      5  O   UNL     1     -45.850 -15.505 -22.280  0.00  0.00    +0.000 OA
ATOM      6  C   UNL     1     -45.533 -15.497 -23.575  0.00  0.00    +0.000 A 
ATOM      7  C   UNL     1     -45.529 -14.270 -24.290  0.00  0.00    +0.000 A 
ATOM      8  C   UNL     1     -45.252 -14.271 -25.673  0.00  0.00    +0.000 A 
ATOM      9  C   UNL     1     -45.014 -15.476 -26.336  0.00  0.00    +0.000 A 
ATOM     10  C   UNL     1     -45.010 -16.685 -25.638  0.00  0.00    +0.000 A 
ATOM     11  C   UNL     1     -45.207 -16.708 -24.237  0.00  0.00    +0.000 A 
ATOM     12  C   UNL     1     -45.202 -18.063 -23.518  0.00  0.00    +0.000 C 
ATOM     13  C   UNL     1     -44.396 -19.133 -24.262  0.00  0.00    +0.000 C 
ATOM     14  C   UNL     1     -44.680 -19.097 -25.720  0.00  0.00    +0.000 C 
ATOM     15  O   UNL     1     -44.753 -20.166 -26.379  0.00  0.00    +0.000 OA
ATOM     16  O   UNL     1     -44.835 -17.870 -26.359  0.00  0.00    +0.000 OA
ENDROOT
BRANCH  12  17
ATOM     17  C   UNL     1     -44.704 -18.027 -22.099  0.00  0.00    +0.000 A 
ATOM     18  C   UNL     1     -43.468 -17.423 -21.844  0.00  0.00    +0.000 A 
ATOM     19  C   UNL     1     -42.987 -17.323 -20.537  0.00  0.00    +0.000 A 
ATOM     20  C   UNL     1     -43.737 -17.828 -19.474  0.00  0.00    +0.000 A 
ATOM     21  F   UNL     1     -43.260 -17.734 -18.209  0.00  0.00    +0.000 F 
ATOM     22  C   UNL     1     -44.979 -18.428 -19.716  0.00  0.00    +0.000 A 
ATOM     23  F   UNL     1     -45.711 -18.912 -18.681  0.00  0.00    +0.000 F 
ATOM     24  C   UNL     1     -45.471 -18.519 -21.024  0.00  0.00    +0.000 A 
ATOM     25  F   UNL     1     -46.686 -19.082 -21.242  0.00  0.00    +0.000 F 
ENDBRANCH  12  17
BRANCH   4  26
ATOM     26  C   UNL     1     -46.488 -14.509 -20.156  0.00  0.00    +0.000 A 
ATOM     27  C   UNL     1     -47.007 -15.706 -19.644  0.00  0.00    +0.000 A 
ATOM     28  C   UNL     1     -47.333 -15.817 -18.289  0.00  0.00    +0.000 A 
ATOM     29  C   UNL     1     -47.145 -14.730 -17.433  0.00  0.00    +0.000 A 
ATOM     30  C   UNL     1     -46.631 -13.530 -17.932  0.00  0.00    +0.000 A 
ATOM     31  C   UNL     1     -46.305 -13.420 -19.287  0.00  0.00    +0.000 A 
ENDBRANCH   4  26
BRANCH   8  32
ATOM     32  O   UNL     1     -45.229 -13.088 -26.406  0.00  0.00    +0.000 OA
ATOM     33  H   UNL     1     -45.885 -12.926 -27.055  0.00  0.00    +0.000 HD
ENDBRANCH   8  32
BRANCH   9  34
ATOM     34  O   UNL     1     -44.785 -15.472 -27.709  0.00  0.00    +0.000 OA
ATOM     35  H   UNL     1     -45.391 -15.049 -28.284  0.00  0.00    +0.000 HD
ENDBRANCH   9  34
TORSDOF 4
ENDMDL
MODEL 3
REMARK VINA RESULT:      -7.6     10.577     13.884
REMARK  Name = ZINC000096117524
REMARK  4 active torsions:
REMARK  status: ('A' for Active; 'I' for Inactive)
REMARK    1  A    between atoms: C_4  and  C_30
REMARK    2  A    between atoms: C_8  and  O_9
REMARK    3  A    between atoms: C_10  and  O_11
REMARK    4  A    between atoms: C_14  and  C_21
REMARK                            x       y       z     vdW  Elec       q    Type
REMARK                         _______ _______ _______ _____ _____    ______ ____
ROOT
ATOM      1  O   UNL     1     -43.989 -18.228 -26.289  0.00  0.00    +0.000 OA
ATOM      2  C   UNL     1     -43.979 -18.141 -25.032  0.00  0.00    +0.000 A 
ATOM      3  C   UNL     1     -43.278 -19.095 -24.305  0.00  0.00    +0.000 A 
ATOM      4  C   UNL     1     -43.248 -19.013 -22.911  0.00  0.00    +0.000 A 
ATOM      5  O   UNL     1     -43.901 -18.030 -22.294  0.00  0.00    +0.000 OA
ATOM      6  C   UNL     1     -44.602 -17.094 -22.935  0.00  0.00    +0.000 A 
ATOM      7  C   UNL     1     -44.650 -17.102 -24.355  0.00  0.00    +0.000 A 
ATOM      8  C   UNL     1     -45.341 -16.077 -25.033  0.00  0.00    +0.000 A 
ATOM      9  C   UNL     1     -45.946 -15.047 -24.311  0.00  0.00    +0.000 A 
ATOM     10  C   UNL     1     -45.909 -15.037 -22.916  0.00  0.00    +0.000 A 
ATOM     11  C   UNL     1     -45.290 -16.093 -22.205  0.00  0.00    +0.000 A 
ATOM     12  C   UNL     1     -45.268 -16.031 -20.673  0.00  0.00    +0.000 C 
ATOM     13  C   UNL     1     -46.412 -15.195 -20.090  0.00  0.00    +0.000 C 
ATOM     14  C   UNL     1     -46.595 -13.934 -20.855  0.00  0.00    +0.000 C 
ATOM     15  O   UNL     1     -46.887 -12.866 -20.258  0.00  0.00    +0.000 OA
ATOM     16  O   UNL     1     -46.470 -13.949 -22.241  0.00  0.00    +0.000 OA
ENDROOT
BRANCH  12  17
ATOM     17  C   UNL     1     -45.288 -17.367 -19.982  0.00  0.00    +0.000 A 
ATOM     18  C   UNL     1     -46.324 -18.256 -20.287  0.00  0.00    +0.000 A 
ATOM     19  C   UNL     1     -46.358 -19.527 -19.708  0.00  0.00    +0.000 A 
ATOM     20  C   UNL     1     -45.357 -19.917 -18.817  0.00  0.00    +0.000 A 
ATOM     21  F   UNL     1     -45.401 -21.149 -18.253  0.00  0.00    +0.000 F 
ATOM     22  C   UNL     1     -44.311 -19.039 -18.510  0.00  0.00    +0.000 A 
ATOM     23  F   UNL     1     -43.335 -19.422 -17.649  0.00  0.00    +0.000 F 
ATOM     24  C   UNL     1     -44.266 -17.769 -19.098  0.00  0.00    +0.000 A 
ATOM     25  F   UNL     1     -43.235 -16.936 -18.809  0.00  0.00    +0.000 F 
ENDBRANCH  12  17
BRANCH   4  26
ATOM     26  C   UNL     1     -42.496 -20.007 -22.120  0.00  0.00    +0.000 A 
ATOM     27  C   UNL     1     -42.174 -21.250 -22.683  0.00  0.00    +0.000 A 
ATOM     28  C   UNL     1     -41.462 -22.200 -21.945  0.00  0.00    +0.000 A 
ATOM     29  C   UNL     1     -41.066 -21.917 -20.636  0.00  0.00    +0.000 A 
ATOM     30  C   UNL     1     -41.383 -20.682 -20.064  0.00  0.00    +0.000 A 
ATOM     31  C   UNL     1     -42.095 -19.732 -20.802  0.00  0.00    +0.000 A 
ENDBRANCH   4  26
BRANCH   8  32
ATOM     32  O   UNL     1     -45.420 -16.055 -26.422  0.00  0.00    +0.000 OA
ATOM     33  H   UNL     1     -45.121 -15.304 -26.897  0.00  0.00    +0.000 HD
ENDBRANCH   8  32
BRANCH   9  34
ATOM     34  O   UNL     1     -46.589 -14.017 -24.990  0.00  0.00    +0.000 OA
ATOM     35  H   UNL     1     -46.859 -14.138 -25.879  0.00  0.00    +0.000 HD
ENDBRANCH   9  34
TORSDOF 4
ENDMDL
