MODEL 1
REMARK VINA RESULT:      -6.4      0.000      0.000
REMARK  Name = ZINC000031806781
REMARK  3 active torsions:
REMARK  status: ('A' for Active; 'I' for Inactive)
REMARK    1  A    between atoms: C_1  and  C_28
REMARK    2  A    between atoms: C_24  and  O_31
REMARK    3  A    between atoms: C_27  and  O_32
REMARK                            x       y       z     vdW  Elec       q    Type
REMARK                         _______ _______ _______ _____ _____    ______ ____
ROOT
ATOM      1  C   UNL     1     -45.765  -6.298 -28.421  0.00  0.00    +0.000 C 
ATOM      2  S   UNL     1     -47.208  -5.237 -28.745  0.00  0.00    +0.000 S 
ATOM      3  C   UNL     1     -47.391  -5.845 -30.435  0.00  0.00    +0.000 C 
ATOM      4  C   UNL     1     -46.654  -4.958 -31.366  0.00  0.00    +0.000 C 
ATOM      5  O   UNL     1     -47.302  -4.358 -32.261  0.00  0.00    +0.000 OA
ATOM      6  N   UNL     1     -45.235  -4.781 -31.306  0.00  0.00    +0.000 N 
ATOM      7  C   UNL     1     -44.277  -5.264 -30.347  0.00  0.00    +0.000 A 
ATOM      8  C   UNL     1     -44.497  -5.933 -29.144  0.00  0.00    +0.000 A 
ATOM      9  C   UNL     1     -43.222  -6.227 -28.690  0.00  0.00    +0.000 A 
ATOM     10  C   UNL     1     -42.881  -6.951 -27.434  0.00  0.00    +0.000 C 
ATOM     11  N   UNL     1     -42.300  -5.770 -29.555  0.00  0.00    +0.000 NA
ATOM     12  N   UNL     1     -42.942  -5.172 -30.545  0.00  0.00    +0.000 N 
ATOM     13  H   UNL     1     -44.854  -4.245 -32.037  0.00  0.00    +0.000 HD
ATOM     14  C   UNL     1     -42.262  -4.596 -31.669  0.00  0.00    +0.000 A 
ATOM     15  N   UNL     1     -41.130  -5.185 -32.161  0.00  0.00    +0.000 NA
ATOM     16  C   UNL     1     -40.439  -4.647 -33.215  0.00  0.00    +0.000 A 
ATOM     17  N   UNL     1     -40.861  -3.484 -33.798  0.00  0.00    +0.000 NA
ATOM     18  C   UNL     1     -41.974  -2.892 -33.304  0.00  0.00    +0.000 A 
ATOM     19  N   UNL     1     -42.502  -1.729 -33.704  0.00  0.00    +0.000 N 
ATOM     20  C   UNL     1     -43.550  -1.573 -32.849  0.00  0.00    +0.000 A 
ATOM     21  N   UNL     1     -43.678  -2.583 -31.945  0.00  0.00    +0.000 NA
ATOM     22  C   UNL     1     -42.671  -3.405 -32.270  0.00  0.00    +0.000 A 
ATOM     23  H   UNL     1     -42.208  -1.136 -34.434  0.00  0.00    +0.000 HD
ENDROOT
BRANCH   1  28
ATOM     24  C   UNL     1     -46.059  -9.917 -29.505  0.00  0.00    +0.000 A 
ATOM     25  C   UNL     1     -46.578 -10.533 -28.366  0.00  0.00    +0.000 A 
ATOM     26  C   UNL     1     -46.847  -9.782 -27.221  0.00  0.00    +0.000 A 
ATOM     27  C   UNL     1     -46.603  -8.398 -27.197  0.00  0.00    +0.000 A 
ATOM     28  C   UNL     1     -46.081  -7.770 -28.351  0.00  0.00    +0.000 A 
ATOM     29  C   UNL     1     -45.813  -8.537 -29.490  0.00  0.00    +0.000 A 
BRANCH  24  31
ATOM     30  C   UNL     1     -45.992 -10.217 -31.960  0.00  0.00    +0.000 C 
ATOM     31  O   UNL     1     -45.799 -10.697 -30.636  0.00  0.00    +0.000 OA
ENDBRANCH  24  31
BRANCH  27  32
ATOM     32  O   UNL     1     -46.877  -7.647 -26.048  0.00  0.00    +0.000 OA
ATOM     33  C   UNL     1     -47.568  -8.176 -24.925  0.00  0.00    +0.000 C 
ENDBRANCH  27  32
ENDBRANCH   1  28
TORSDOF 3
ENDMDL
MODEL 2
REMARK VINA RESULT:      -6.2      4.143      6.874
REMARK  Name = ZINC000031806781
REMARK  3 active torsions:
REMARK  status: ('A' for Active; 'I' for Inactive)
REMARK    1  A    between atoms: C_1  and  C_28
REMARK    2  A    between atoms: C_24  and  O_31
REMARK    3  A    between atoms: C_27  and  O_32
REMARK                            x       y       z     vdW  Elec       q    Type
REMARK                         _______ _______ _______ _____ _____    ______ ____
ROOT
ATOM      1  C   UNL     1     -42.583  -3.163 -33.425  0.00  0.00    +0.000 C 
ATOM      2  S   UNL     1     -41.780  -4.220 -34.669  0.00  0.00    +0.000 S 
ATOM      3  C   UNL     1     -40.680  -4.973 -33.453  0.00  0.00    +0.000 C 
ATOM      4  C   UNL     1     -39.400  -4.225 -33.408  0.00  0.00    +0.000 C 
ATOM      5  O   UNL     1     -38.340  -4.833 -33.704  0.00  0.00    +0.000 OA
ATOM      6  N   UNL     1     -39.321  -2.851 -33.016  0.00  0.00    +0.000 N 
ATOM      7  C   UNL     1     -40.365  -1.906 -32.721  0.00  0.00    +0.000 A 
ATOM      8  C   UNL     1     -41.745  -2.047 -32.863  0.00  0.00    +0.000 A 
ATOM      9  C   UNL     1     -42.254  -0.866 -32.348  0.00  0.00    +0.000 A 
ATOM     10  C   UNL     1     -43.693  -0.497 -32.250  0.00  0.00    +0.000 C 
ATOM     11  N   UNL     1     -41.255  -0.071 -31.926  0.00  0.00    +0.000 NA
ATOM     12  N   UNL     1     -40.115  -0.696 -32.171  0.00  0.00    +0.000 N 
ATOM     13  H   UNL     1     -38.407  -2.497 -32.934  0.00  0.00    +0.000 HD
ATOM     14  C   UNL     1     -38.840  -0.144 -31.813  0.00  0.00    +0.000 A 
ATOM     15  N   UNL     1     -38.709   0.593 -30.668  0.00  0.00    +0.000 NA
ATOM     16  C   UNL     1     -37.513   1.158 -30.311  0.00  0.00    +0.000 A 
ATOM     17  N   UNL     1     -36.411   1.010 -31.106  0.00  0.00    +0.000 NA
ATOM     18  C   UNL     1     -36.541   0.292 -32.247  0.00  0.00    +0.000 A 
ATOM     19  N   UNL     1     -35.597   0.089 -33.174  0.00  0.00    +0.000 N 
ATOM     20  C   UNL     1     -36.265  -0.626 -34.121  0.00  0.00    +0.000 A 
ATOM     21  N   UNL     1     -37.570  -0.861 -33.815  0.00  0.00    +0.000 NA
ATOM     22  C   UNL     1     -37.708  -0.275 -32.618  0.00  0.00    +0.000 A 
ATOM     23  H   UNL     1     -34.657   0.383 -33.171  0.00  0.00    +0.000 HD
ENDROOT
BRANCH   1  28
ATOM     24  C   UNL     1     -43.501  -5.173 -30.347  0.00  0.00    +0.000 A 
ATOM     25  C   UNL     1     -44.885  -5.301 -30.471  0.00  0.00    +0.000 A 
ATOM     26  C   UNL     1     -45.548  -4.738 -31.562  0.00  0.00    +0.000 A 
ATOM     27  C   UNL     1     -44.837  -4.038 -32.551  0.00  0.00    +0.000 A 
ATOM     28  C   UNL     1     -43.435  -3.910 -32.430  0.00  0.00    +0.000 A 
ATOM     29  C   UNL     1     -42.784  -4.477 -31.329  0.00  0.00    +0.000 A 
BRANCH  24  31
ATOM     30  C   UNL     1     -43.526  -6.640 -28.355  0.00  0.00    +0.000 C 
ATOM     31  O   UNL     1     -42.865  -5.747 -29.242  0.00  0.00    +0.000 OA
ENDBRANCH  24  31
BRANCH  27  32
ATOM     32  O   UNL     1     -45.506  -3.477 -33.645  0.00  0.00    +0.000 OA
ATOM     33  C   UNL     1     -46.917  -3.313 -33.689  0.00  0.00    +0.000 C 
ENDBRANCH  27  32
ENDBRANCH   1  28
TORSDOF 3
ENDMDL
MODEL 3
REMARK VINA RESULT:      -6.0     13.298     15.283
REMARK  Name = ZINC000031806781
REMARK  3 active torsions:
REMARK  status: ('A' for Active; 'I' for Inactive)
REMARK    1  A    between atoms: C_1  and  C_28
REMARK    2  A    between atoms: C_24  and  O_31
REMARK    3  A    between atoms: C_27  and  O_32
REMARK                            x       y       z     vdW  Elec       q    Type
REMARK                         _______ _______ _______ _____ _____    ______ ____
ROOT
ATOM      1  C   UNL     1     -44.410 -16.976 -22.949  0.00  0.00    +0.000 C 
ATOM      2  S   UNL     1     -45.513 -17.027 -24.396  0.00  0.00    +0.000 S 
ATOM      3  C   UNL     1     -45.872 -18.782 -24.175  0.00  0.00    +0.000 C 
ATOM      4  C   UNL     1     -44.931 -19.590 -24.988  0.00  0.00    +0.000 C 
ATOM      5  O   UNL     1     -45.401 -20.328 -25.891  0.00  0.00    +0.000 OA
ATOM      6  N   UNL     1     -43.517 -19.584 -24.767  0.00  0.00    +0.000 N 
ATOM      7  C   UNL     1     -42.717 -18.780 -23.882  0.00  0.00    +0.000 A 
ATOM      8  C   UNL     1     -43.098 -17.700 -23.089  0.00  0.00    +0.000 A 
ATOM      9  C   UNL     1     -41.947 -17.378 -22.389  0.00  0.00    +0.000 A 
ATOM     10  C   UNL     1     -41.802 -16.288 -21.386  0.00  0.00    +0.000 C 
ATOM     11  N   UNL     1     -40.944 -18.205 -22.734  0.00  0.00    +0.000 NA
ATOM     12  N   UNL     1     -41.409 -19.038 -23.651  0.00  0.00    +0.000 N 
ATOM     13  H   UNL     1     -43.013 -20.234 -25.307  0.00  0.00    +0.000 HD
ATOM     14  C   UNL     1     -40.610 -20.085 -24.219  0.00  0.00    +0.000 A 
ATOM     15  N   UNL     1     -39.686 -20.736 -23.449  0.00  0.00    +0.000 NA
ATOM     16  C   UNL     1     -38.886 -21.721 -23.967  0.00  0.00    +0.000 A 
ATOM     17  N   UNL     1     -38.981 -22.071 -25.285  0.00  0.00    +0.000 NA
ATOM     18  C   UNL     1     -39.886 -21.417 -26.053  0.00  0.00    +0.000 A 
ATOM     19  N   UNL     1     -40.083 -21.580 -27.367  0.00  0.00    +0.000 N 
ATOM     20  C   UNL     1     -41.039 -20.650 -27.638  0.00  0.00    +0.000 A 
ATOM     21  N   UNL     1     -41.428 -19.927 -26.551  0.00  0.00    +0.000 NA
ATOM     22  C   UNL     1     -40.686 -20.447 -25.564  0.00  0.00    +0.000 A 
ATOM     23  H   UNL     1     -39.645 -22.213 -27.982  0.00  0.00    +0.000 HD
ENDROOT
BRANCH   1  28
ATOM     24  C   UNL     1     -45.755 -18.665 -19.834  0.00  0.00    +0.000 A 
ATOM     25  C   UNL     1     -46.351 -17.605 -19.150  0.00  0.00    +0.000 A 
ATOM     26  C   UNL     1     -46.332 -16.319 -19.690  0.00  0.00    +0.000 A 
ATOM     27  C   UNL     1     -45.716 -16.070 -20.928  0.00  0.00    +0.000 A 
ATOM     28  C   UNL     1     -45.114 -17.141 -21.626  0.00  0.00    +0.000 A 
ATOM     29  C   UNL     1     -45.138 -18.425 -21.070  0.00  0.00    +0.000 A 
BRANCH  24  31
ATOM     30  C   UNL     1     -44.809 -20.397 -18.344  0.00  0.00    +0.000 C 
ATOM     31  O   UNL     1     -45.789 -19.942 -19.266  0.00  0.00    +0.000 OA
ENDBRANCH  24  31
BRANCH  27  32
ATOM     32  O   UNL     1     -45.701 -14.778 -21.468  0.00  0.00    +0.000 OA
ATOM     33  C   UNL     1     -46.568 -13.744 -21.024  0.00  0.00    +0.000 C 
ENDBRANCH  27  32
ENDBRANCH   1  28
TORSDOF 3
ENDMDL
