MODEL 1
REMARK VINA RESULT:      -7.9      0.000      0.000
REMARK  Name = ZINC000113940140 CSC048854728
REMARK  3 active torsions:
REMARK  status: ('A' for Active; 'I' for Inactive)
REMARK    1  A    between atoms: C_2  and  C_5
REMARK    2  A    between atoms: N_3  and  C_18
REMARK    3  A    between atoms: C_23  and  C_24
REMARK                            x       y       z     vdW  Elec       q    Type
REMARK                         _______ _______ _______ _____ _____    ______ ____
ROOT
ATOM      1  O   UNL     1     -47.627  -6.442 -30.774  0.00  0.00    +0.000 OA
ATOM      2  C   UNL     1     -46.752  -6.773 -29.929  0.00  0.00    +0.000 C 
ATOM      3  N   UNL     1     -45.693  -7.674 -30.275  0.00  0.00    +0.000 N 
ATOM      4  H   UNL     1     -45.070  -7.911 -29.551  0.00  0.00    +0.000 HD
ENDROOT
BRANCH   2   5
ATOM      5  C   UNL     1     -46.801  -6.226 -28.570  0.00  0.00    +0.000 A 
ATOM      6  C   UNL     1     -47.063  -4.891 -28.252  0.00  0.00    +0.000 A 
ATOM      7  C   UNL     1     -46.989  -4.888 -26.871  0.00  0.00    +0.000 A 
ATOM      8  C   UNL     1     -46.701  -6.162 -26.461  0.00  0.00    +0.000 A 
ATOM      9  O   UNL     1     -46.592  -6.956 -27.491  0.00  0.00    +0.000 OA
ATOM     10  C   UNL     1     -46.556  -6.496 -25.115  0.00  0.00    +0.000 A 
ATOM     11  C   UNL     1     -46.717  -5.473 -24.164  0.00  0.00    +0.000 A 
ATOM     12  C   UNL     1     -47.015  -4.156 -24.571  0.00  0.00    +0.000 A 
ATOM     13  C   UNL     1     -47.173  -3.145 -23.621  0.00  0.00    +0.000 A 
ATOM     14  C   UNL     1     -47.469  -1.840 -24.028  0.00  0.00    +0.000 A 
ATOM     15  C   UNL     1     -47.607  -1.538 -25.388  0.00  0.00    +0.000 A 
ATOM     16  C   UNL     1     -47.451  -2.540 -26.351  0.00  0.00    +0.000 A 
ATOM     17  C   UNL     1     -47.156  -3.848 -25.952  0.00  0.00    +0.000 A 
ENDBRANCH   2   5
BRANCH   3  18
ATOM     18  C   UNL     1     -45.434  -8.270 -31.557  0.00  0.00    +0.000 A 
ATOM     19  C   UNL     1     -45.821  -9.590 -31.828  0.00  0.00    +0.000 A 
ATOM     20  C   UNL     1     -45.518 -10.186 -33.054  0.00  0.00    +0.000 A 
ATOM     21  C   UNL     1     -44.815  -9.468 -34.021  0.00  0.00    +0.000 A 
ATOM     22  C   UNL     1     -44.424  -8.152 -33.765  0.00  0.00    +0.000 A 
ATOM     23  C   UNL     1     -44.740  -7.535 -32.546  0.00  0.00    +0.000 A 
BRANCH  23  24
ATOM     24  C   UNL     1     -44.300  -6.138 -32.325  0.00  0.00    +0.000 C 
ATOM     25  O   UNL     1     -43.161  -5.929 -31.826  0.00  0.00    +0.000 OA
ATOM     26  N   UNL     1     -45.135  -5.024 -32.678  0.00  0.00    +0.000 N 
ATOM     27  C   UNL     1     -44.885  -3.714 -32.079  0.00  0.00    +0.000 C 
ATOM     28  C   UNL     1     -46.177  -2.897 -32.094  0.00  0.00    +0.000 C 
ATOM     29  O   UNL     1     -46.691  -2.842 -33.403  0.00  0.00    +0.000 OA
ATOM     30  C   UNL     1     -47.165  -4.132 -33.700  0.00  0.00    +0.000 C 
ATOM     31  C   UNL     1     -45.988  -5.094 -33.866  0.00  0.00    +0.000 C 
ENDBRANCH  23  24
ENDBRANCH   3  18
TORSDOF 3
ENDMDL
MODEL 2
REMARK VINA RESULT:      -7.9      2.732      5.260
REMARK  Name = ZINC000113940140 CSC048854728
REMARK  3 active torsions:
REMARK  status: ('A' for Active; 'I' for Inactive)
REMARK    1  A    between atoms: C_2  and  C_5
REMARK    2  A    between atoms: N_3  and  C_18
REMARK    3  A    between atoms: C_23  and  C_24
REMARK                            x       y       z     vdW  Elec       q    Type
REMARK                         _______ _______ _______ _____ _____    ______ ____
ROOT
ATOM      1  O   UNL     1     -46.704  -4.668 -29.785  0.00  0.00    +0.000 OA
ATOM      2  C   UNL     1     -46.921  -5.259 -28.693  0.00  0.00    +0.000 C 
ATOM      3  N   UNL     1     -47.038  -6.685 -28.635  0.00  0.00    +0.000 N 
ATOM      4  H   UNL     1     -47.243  -7.070 -27.752  0.00  0.00    +0.000 HD
ENDROOT
BRANCH   2   5
ATOM      5  C   UNL     1     -47.048  -4.486 -27.454  0.00  0.00    +0.000 A 
ATOM      6  C   UNL     1     -46.908  -5.006 -26.166  0.00  0.00    +0.000 A 
ATOM      7  C   UNL     1     -47.124  -3.899 -25.366  0.00  0.00    +0.000 A 
ATOM      8  C   UNL     1     -47.371  -2.829 -26.183  0.00  0.00    +0.000 A 
ATOM      9  O   UNL     1     -47.320  -3.194 -27.435  0.00  0.00    +0.000 OA
ATOM     10  C   UNL     1     -47.631  -1.554 -25.683  0.00  0.00    +0.000 A 
ATOM     11  C   UNL     1     -47.637  -1.386 -24.287  0.00  0.00    +0.000 A 
ATOM     12  C   UNL     1     -47.384  -2.479 -23.432  0.00  0.00    +0.000 A 
ATOM     13  C   UNL     1     -47.392  -2.303 -22.046  0.00  0.00    +0.000 A 
ATOM     14  C   UNL     1     -47.141  -3.390 -21.201  0.00  0.00    +0.000 A 
ATOM     15  C   UNL     1     -46.882  -4.657 -21.737  0.00  0.00    +0.000 A 
ATOM     16  C   UNL     1     -46.872  -4.848 -23.122  0.00  0.00    +0.000 A 
ATOM     17  C   UNL     1     -47.122  -3.766 -23.975  0.00  0.00    +0.000 A 
ENDBRANCH   2   5
BRANCH   3  18
ATOM     18  C   UNL     1     -46.888  -7.622 -29.714  0.00  0.00    +0.000 A 
ATOM     19  C   UNL     1     -47.661  -7.507 -30.879  0.00  0.00    +0.000 A 
ATOM     20  C   UNL     1     -47.555  -8.450 -31.903  0.00  0.00    +0.000 A 
ATOM     21  C   UNL     1     -46.678  -9.526 -31.768  0.00  0.00    +0.000 A 
ATOM     22  C   UNL     1     -45.901  -9.653 -30.615  0.00  0.00    +0.000 A 
ATOM     23  C   UNL     1     -45.984  -8.701 -29.588  0.00  0.00    +0.000 A 
BRANCH  23  24
ATOM     24  C   UNL     1     -45.140  -8.884 -28.385  0.00  0.00    +0.000 C 
ATOM     25  O   UNL     1     -44.204  -8.067 -28.166  0.00  0.00    +0.000 OA
ATOM     26  N   UNL     1     -45.372  -9.959 -27.462  0.00  0.00    +0.000 N 
ATOM     27  C   UNL     1     -44.307 -10.372 -26.549  0.00  0.00    +0.000 C 
ATOM     28  C   UNL     1     -44.529 -11.829 -26.141  0.00  0.00    +0.000 C 
ATOM     29  O   UNL     1     -45.826 -11.986 -25.619  0.00  0.00    +0.000 OA
ATOM     30  C   UNL     1     -46.712 -11.854 -26.703  0.00  0.00    +0.000 C 
ATOM     31  C   UNL     1     -46.739 -10.402 -27.180  0.00  0.00    +0.000 C 
ENDBRANCH  23  24
ENDBRANCH   3  18
TORSDOF 3
ENDMDL
MODEL 3
REMARK VINA RESULT:      -7.6      1.487      2.526
REMARK  Name = ZINC000113940140 CSC048854728
REMARK  3 active torsions:
REMARK  status: ('A' for Active; 'I' for Inactive)
REMARK    1  A    between atoms: C_2  and  C_5
REMARK    2  A    between atoms: N_3  and  C_18
REMARK    3  A    between atoms: C_23  and  C_24
REMARK                            x       y       z     vdW  Elec       q    Type
REMARK                         _______ _______ _______ _____ _____    ______ ____
ROOT
ATOM      1  O   UNL     1     -47.443  -5.598 -29.885  0.00  0.00    +0.000 OA
ATOM      2  C   UNL     1     -46.977  -5.955 -28.769  0.00  0.00    +0.000 C 
ATOM      3  N   UNL     1     -46.363  -7.238 -28.601  0.00  0.00    +0.000 N 
ATOM      4  H   UNL     1     -46.055  -7.457 -27.692  0.00  0.00    +0.000 HD
ENDROOT
BRANCH   2   5
ATOM      5  C   UNL     1     -47.049  -5.047 -27.621  0.00  0.00    +0.000 A 
ATOM      6  C   UNL     1     -46.892  -5.427 -26.286  0.00  0.00    +0.000 A 
ATOM      7  C   UNL     1     -47.054  -4.233 -25.608  0.00  0.00    +0.000 A 
ATOM      8  C   UNL     1     -47.289  -3.251 -26.533  0.00  0.00    +0.000 A 
ATOM      9  O   UNL     1     -47.281  -3.753 -27.738  0.00  0.00    +0.000 OA
ATOM     10  C   UNL     1     -47.498  -1.922 -26.171  0.00  0.00    +0.000 A 
ATOM     11  C   UNL     1     -47.463  -1.601 -24.802  0.00  0.00    +0.000 A 
ATOM     12  C   UNL     1     -47.222  -2.602 -23.837  0.00  0.00    +0.000 A 
ATOM     13  C   UNL     1     -47.189  -2.276 -22.480  0.00  0.00    +0.000 A 
ATOM     14  C   UNL     1     -46.950  -3.271 -21.526  0.00  0.00    +0.000 A 
ATOM     15  C   UNL     1     -46.744  -4.597 -21.924  0.00  0.00    +0.000 A 
ATOM     16  C   UNL     1     -46.774  -4.939 -23.280  0.00  0.00    +0.000 A 
ATOM     17  C   UNL     1     -47.013  -3.949 -24.240  0.00  0.00    +0.000 A 
ENDBRANCH   2   5
BRANCH   3  18
ATOM     18  C   UNL     1     -46.142  -8.242 -29.605  0.00  0.00    +0.000 A 
ATOM     19  C   UNL     1     -46.939  -9.395 -29.658  0.00  0.00    +0.000 A 
ATOM     20  C   UNL     1     -46.687 -10.395 -30.598  0.00  0.00    +0.000 A 
ATOM     21  C   UNL     1     -45.625 -10.257 -31.492  0.00  0.00    +0.000 A 
ATOM     22  C   UNL     1     -44.823  -9.114 -31.452  0.00  0.00    +0.000 A 
ATOM     23  C   UNL     1     -45.080  -8.093 -30.526  0.00  0.00    +0.000 A 
BRANCH  23  24
ATOM     24  C   UNL     1     -44.198  -6.903 -30.524  0.00  0.00    +0.000 C 
ATOM     25  O   UNL     1     -43.190  -6.891 -29.765  0.00  0.00    +0.000 OA
ATOM     26  N   UNL     1     -44.458  -5.775 -31.374  0.00  0.00    +0.000 N 
ATOM     27  C   UNL     1     -43.856  -4.479 -31.062  0.00  0.00    +0.000 C 
ATOM     28  C   UNL     1     -44.711  -3.367 -31.670  0.00  0.00    +0.000 C 
ATOM     29  O   UNL     1     -44.890  -3.600 -33.046  0.00  0.00    +0.000 OA
ATOM     30  C   UNL     1     -45.746  -4.711 -33.154  0.00  0.00    +0.000 C 
ATOM     31  C   UNL     1     -45.014  -5.978 -32.713  0.00  0.00    +0.000 C 
ENDBRANCH  23  24
ENDBRANCH   3  18
TORSDOF 3
ENDMDL
