MODEL 1
REMARK VINA RESULT:      -6.1      0.000      0.000
REMARK  Name = ZINC000001703511 PubChem-92161731
REMARK  9 active torsions:
REMARK  status: ('A' for Active; 'I' for Inactive)
REMARK    1  A    between atoms: N_17  and  C_20
REMARK    2  A    between atoms: C_20  and  C_21
REMARK    3  A    between atoms: C_21  and  O_22
REMARK    4  A    between atoms: C_21  and  C_24
REMARK    5  A    between atoms: C_24  and  O_25
REMARK    6  A    between atoms: C_24  and  C_27
REMARK    7  A    between atoms: C_27  and  O_28
REMARK    8  A    between atoms: C_27  and  C_30
REMARK    9  A    between atoms: C_30  and  O_31
REMARK                            x       y       z     vdW  Elec       q    Type
REMARK                         _______ _______ _______ _____ _____    ______ ____
ROOT
ATOM      1  C   UNL     1     -46.580 -12.363 -19.325  0.00  0.00    +0.000 C 
ATOM      2  C   UNL     1     -46.309 -13.725 -19.867  0.00  0.00    +0.000 A 
ATOM      3  C   UNL     1     -46.175 -14.839 -19.020  0.00  0.00    +0.000 A 
ATOM      4  C   UNL     1     -45.920 -16.099 -19.566  0.00  0.00    +0.000 A 
ATOM      5  C   UNL     1     -45.793 -16.277 -20.955  0.00  0.00    +0.000 A 
ATOM      6  C   UNL     1     -45.933 -15.144 -21.798  0.00  0.00    +0.000 A 
ATOM      7  C   UNL     1     -46.187 -13.885 -21.249  0.00  0.00    +0.000 A 
ATOM      8  C   UNL     1     -45.818 -15.270 -23.179  0.00  0.00    +0.000 A 
ATOM      9  C   UNL     1     -45.568 -16.518 -23.736  0.00  0.00    +0.000 A 
ATOM     10  C   UNL     1     -45.442 -16.733 -25.110  0.00  0.00    +0.000 A 
ATOM     11  O   UNL     1     -45.551 -15.779 -25.926  0.00  0.00    +0.000 OA
ATOM     12  N   UNL     1     -45.199 -17.987 -25.573  0.00  0.00    +0.000 N 
ATOM     13  C   UNL     1     -45.073 -19.056 -24.738  0.00  0.00    +0.000 A 
ATOM     14  O   UNL     1     -44.848 -20.198 -25.218  0.00  0.00    +0.000 OA
ATOM     15  N   UNL     1     -45.186 -18.902 -23.392  0.00  0.00    +0.000 NA
ATOM     16  C   UNL     1     -45.427 -17.683 -22.841  0.00  0.00    +0.000 A 
ATOM     17  N   UNL     1     -45.540 -17.522 -21.487  0.00  0.00    +0.000 N 
ATOM     18  C   UNL     1     -46.298 -14.713 -17.539  0.00  0.00    +0.000 C 
ATOM     19  H   UNL     1     -45.111 -18.128 -26.543  0.00  0.00    +0.000 HD
ENDROOT
BRANCH  17  20
ATOM     20  C   UNL     1     -45.380 -18.687 -20.613  0.00  0.00    +0.000 C 
BRANCH  20  21
ATOM     21  C   UNL     1     -43.903 -18.953 -20.336  0.00  0.00    +0.000 C 
BRANCH  21  22
ATOM     22  O   UNL     1     -43.498 -20.084 -21.047  0.00  0.00    +0.000 OA
ATOM     23  H   UNL     1     -42.599 -20.329 -20.780  0.00  0.00    +0.000 HD
ENDBRANCH  21  22
BRANCH  21  24
ATOM     24  C   UNL     1     -43.667 -19.152 -18.834  0.00  0.00    +0.000 C 
BRANCH  24  25
ATOM     25  O   UNL     1     -43.142 -17.984 -18.275  0.00  0.00    +0.000 OA
ATOM     26  H   UNL     1     -43.807 -17.279 -18.313  0.00  0.00    +0.000 HD
ENDBRANCH  24  25
BRANCH  24  27
ATOM     27  C   UNL     1     -42.725 -20.315 -18.518  0.00  0.00    +0.000 C 
BRANCH  27  28
ATOM     28  O   UNL     1     -43.442 -21.482 -18.237  0.00  0.00    +0.000 OA
ATOM     29  H   UNL     1     -42.924 -22.045 -17.640  0.00  0.00    +0.000 HD
ENDBRANCH  27  28
BRANCH  27  30
ATOM     30  C   UNL     1     -41.786 -19.978 -17.371  0.00  0.00    +0.000 C 
BRANCH  30  31
ATOM     31  O   UNL     1     -42.526 -19.651 -16.234  0.00  0.00    +0.000 OA
ATOM     32  H   UNL     1     -42.480 -20.381 -15.597  0.00  0.00    +0.000 HD
ENDBRANCH  30  31
ENDBRANCH  27  30
ENDBRANCH  24  27
ENDBRANCH  21  24
ENDBRANCH  20  21
ENDBRANCH  17  20
TORSDOF 9
ENDMDL
MODEL 2
REMARK VINA RESULT:      -6.1     12.344     15.843
REMARK  Name = ZINC000001703511 PubChem-92161731
REMARK  9 active torsions:
REMARK  status: ('A' for Active; 'I' for Inactive)
REMARK    1  A    between atoms: N_17  and  C_20
REMARK    2  A    between atoms: C_20  and  C_21
REMARK    3  A    between atoms: C_21  and  O_22
REMARK    4  A    between atoms: C_21  and  C_24
REMARK    5  A    between atoms: C_24  and  O_25
REMARK    6  A    between atoms: C_24  and  C_27
REMARK    7  A    between atoms: C_27  and  O_28
REMARK    8  A    between atoms: C_27  and  C_30
REMARK    9  A    between atoms: C_30  and  O_31
REMARK                            x       y       z     vdW  Elec       q    Type
REMARK                         _______ _______ _______ _____ _____    ______ ____
ROOT
ATOM      1  C   UNL     1     -46.700  -5.491 -24.109  0.00  0.00    +0.000 C 
ATOM      2  C   UNL     1     -46.781  -5.453 -25.598  0.00  0.00    +0.000 A 
ATOM      3  C   UNL     1     -47.111  -4.273 -26.286  0.00  0.00    +0.000 A 
ATOM      4  C   UNL     1     -47.177  -4.277 -27.681  0.00  0.00    +0.000 A 
ATOM      5  C   UNL     1     -46.920  -5.448 -28.417  0.00  0.00    +0.000 A 
ATOM      6  C   UNL     1     -46.586  -6.632 -27.708  0.00  0.00    +0.000 A 
ATOM      7  C   UNL     1     -46.521  -6.624 -26.314  0.00  0.00    +0.000 A 
ATOM      8  C   UNL     1     -46.320  -7.815 -28.393  0.00  0.00    +0.000 A 
ATOM      9  C   UNL     1     -46.379  -7.834 -29.781  0.00  0.00    +0.000 A 
ATOM     10  C   UNL     1     -46.124  -8.975 -30.543  0.00  0.00    +0.000 A 
ATOM     11  O   UNL     1     -45.823 -10.067 -29.991  0.00  0.00    +0.000 OA
ATOM     12  N   UNL     1     -46.202  -8.907 -31.898  0.00  0.00    +0.000 N 
ATOM     13  C   UNL     1     -46.522  -7.754 -32.549  0.00  0.00    +0.000 A 
ATOM     14  O   UNL     1     -46.580  -7.744 -33.806  0.00  0.00    +0.000 OA
ATOM     15  N   UNL     1     -46.781  -6.615 -31.854  0.00  0.00    +0.000 NA
ATOM     16  C   UNL     1     -46.728  -6.591 -30.496  0.00  0.00    +0.000 A 
ATOM     17  N   UNL     1     -46.989  -5.447 -29.792  0.00  0.00    +0.000 N 
ATOM     18  C   UNL     1     -47.395  -3.001 -25.561  0.00  0.00    +0.000 C 
ATOM     19  H   UNL     1     -46.020  -9.717 -32.427  0.00  0.00    +0.000 HD
ENDROOT
BRANCH  17  20
ATOM     20  C   UNL     1     -47.350  -4.227 -30.519  0.00  0.00    +0.000 C 
BRANCH  20  21
ATOM     21  C   UNL     1     -46.102  -3.524 -31.043  0.00  0.00    +0.000 C 
BRANCH  21  22
ATOM     22  O   UNL     1     -45.914  -2.333 -30.339  0.00  0.00    +0.000 OA
ATOM     23  H   UNL     1     -45.434  -2.517 -29.517  0.00  0.00    +0.000 HD
ENDBRANCH  21  22
BRANCH  21  24
ATOM     24  C   UNL     1     -46.237  -3.243 -32.545  0.00  0.00    +0.000 C 
BRANCH  24  25
ATOM     25  O   UNL     1     -47.420  -3.804 -33.031  0.00  0.00    +0.000 OA
ATOM     26  H   UNL     1     -48.173  -3.462 -32.525  0.00  0.00    +0.000 HD
ENDBRANCH  24  25
BRANCH  24  27
ATOM     27  C   UNL     1     -45.063  -3.778 -33.369  0.00  0.00    +0.000 C 
BRANCH  27  28
ATOM     28  O   UNL     1     -44.524  -4.929 -32.787  0.00  0.00    +0.000 OA
ATOM     29  H   UNL     1     -43.895  -5.339 -33.402  0.00  0.00    +0.000 HD
ENDBRANCH  27  28
BRANCH  27  30
ATOM     30  C   UNL     1     -43.987  -2.723 -33.559  0.00  0.00    +0.000 C 
BRANCH  30  31
ATOM     31  O   UNL     1     -44.537  -1.586 -34.152  0.00  0.00    +0.000 OA
ATOM     32  H   UNL     1     -44.958  -1.830 -34.991  0.00  0.00    +0.000 HD
ENDBRANCH  30  31
ENDBRANCH  27  30
ENDBRANCH  24  27
ENDBRANCH  21  24
ENDBRANCH  20  21
ENDBRANCH  17  20
TORSDOF 9
ENDMDL
MODEL 3
REMARK VINA RESULT:      -5.9     12.851     16.710
REMARK  Name = ZINC000001703511 PubChem-92161731
REMARK  9 active torsions:
REMARK  status: ('A' for Active; 'I' for Inactive)
REMARK    1  A    between atoms: N_17  and  C_20
REMARK    2  A    between atoms: C_20  and  C_21
REMARK    3  A    between atoms: C_21  and  O_22
REMARK    4  A    between atoms: C_21  and  C_24
REMARK    5  A    between atoms: C_24  and  O_25
REMARK    6  A    between atoms: C_24  and  C_27
REMARK    7  A    between atoms: C_27  and  O_28
REMARK    8  A    between atoms: C_27  and  C_30
REMARK    9  A    between atoms: C_30  and  O_31
REMARK                            x       y       z     vdW  Elec       q    Type
REMARK                         _______ _______ _______ _____ _____    ______ ____
ROOT
ATOM      1  C   UNL     1     -45.892 -10.645 -31.340  0.00  0.00    +0.000 C 
ATOM      2  C   UNL     1     -46.227  -9.241 -30.964  0.00  0.00    +0.000 A 
ATOM      3  C   UNL     1     -46.591  -8.288 -31.930  0.00  0.00    +0.000 A 
ATOM      4  C   UNL     1     -46.898  -6.983 -31.538  0.00  0.00    +0.000 A 
ATOM      5  C   UNL     1     -46.849  -6.601 -30.186  0.00  0.00    +0.000 A 
ATOM      6  C   UNL     1     -46.481  -7.574 -29.220  0.00  0.00    +0.000 A 
ATOM      7  C   UNL     1     -46.175  -8.878 -29.616  0.00  0.00    +0.000 A 
ATOM      8  C   UNL     1     -46.421  -7.244 -27.869  0.00  0.00    +0.000 A 
ATOM      9  C   UNL     1     -46.726  -5.951 -27.464  0.00  0.00    +0.000 A 
ATOM     10  C   UNL     1     -46.693  -5.538 -26.130  0.00  0.00    +0.000 A 
ATOM     11  O   UNL     1     -46.375  -6.341 -25.213  0.00  0.00    +0.000 OA
ATOM     12  N   UNL     1     -47.008  -4.253 -25.819  0.00  0.00    +0.000 N 
ATOM     13  C   UNL     1     -47.360  -3.342 -26.769  0.00  0.00    +0.000 A 
ATOM     14  O   UNL     1     -47.644  -2.165 -26.427  0.00  0.00    +0.000 OA
ATOM     15  N   UNL     1     -47.407  -3.692 -28.081  0.00  0.00    +0.000 NA
ATOM     16  C   UNL     1     -47.106  -4.955 -28.485  0.00  0.00    +0.000 A 
ATOM     17  N   UNL     1     -47.150  -5.312 -29.804  0.00  0.00    +0.000 N 
ATOM     18  C   UNL     1     -46.661  -8.634 -33.379  0.00  0.00    +0.000 C 
ATOM     19  H   UNL     1     -46.982  -3.972 -24.876  0.00  0.00    +0.000 HD
ENDROOT
BRANCH  17  20
ATOM     20  C   UNL     1     -47.512  -4.305 -30.806  0.00  0.00    +0.000 C 
BRANCH  20  21
ATOM     21  C   UNL     1     -46.275  -3.554 -31.286  0.00  0.00    +0.000 C 
BRANCH  21  22
ATOM     22  O   UNL     1     -46.061  -2.446 -30.463  0.00  0.00    +0.000 OA
ATOM     23  H   UNL     1     -45.218  -2.028 -30.697  0.00  0.00    +0.000 HD
ENDBRANCH  21  22
BRANCH  21  24
ATOM     24  C   UNL     1     -46.449  -3.112 -32.744  0.00  0.00    +0.000 C 
BRANCH  24  25
ATOM     25  O   UNL     1     -47.643  -3.623 -33.258  0.00  0.00    +0.000 OA
ATOM     26  H   UNL     1     -48.379  -3.371 -32.679  0.00  0.00    +0.000 HD
ENDBRANCH  24  25
BRANCH  24  27
ATOM     27  C   UNL     1     -45.296  -3.551 -33.651  0.00  0.00    +0.000 C 
BRANCH  27  28
ATOM     28  O   UNL     1     -44.931  -4.876 -33.395  0.00  0.00    +0.000 OA
ATOM     29  H   UNL     1     -43.995  -4.911 -33.143  0.00  0.00    +0.000 HD
ENDBRANCH  27  28
BRANCH  27  30
ATOM     30  C   UNL     1     -44.095  -2.631 -33.512  0.00  0.00    +0.000 C 
BRANCH  30  31
ATOM     31  O   UNL     1     -44.265  -1.505 -34.319  0.00  0.00    +0.000 OA
ATOM     32  H   UNL     1     -44.803  -0.848 -33.848  0.00  0.00    +0.000 HD
ENDBRANCH  30  31
ENDBRANCH  27  30
ENDBRANCH  24  27
ENDBRANCH  21  24
ENDBRANCH  20  21
ENDBRANCH  17  20
TORSDOF 9
ENDMDL
