MODEL 1
REMARK VINA RESULT:      -7.4      0.000      0.000
REMARK  Name = ZINC000019126373 ZINC19126373 PubChem-92555022
REMARK  3 active torsions:
REMARK  status: ('A' for Active; 'I' for Inactive)
REMARK    1  A    between atoms: C_1  and  C_14
REMARK    2  A    between atoms: C_7  and  C_19
REMARK    3  A    between atoms: C_23  and  C_25
REMARK                            x       y       z     vdW  Elec       q    Type
REMARK                         _______ _______ _______ _____ _____    ______ ____
ROOT
ATOM      1  C   UNL     1     -43.815  -7.911 -30.962  0.00  0.00    +0.000 C 
ATOM      2  O   UNL     1     -43.112  -8.250 -29.971  0.00  0.00    +0.000 OA
ATOM      3  N   UNL     1     -45.034  -8.636 -31.236  0.00  0.00    +0.000 N 
ATOM      4  C   UNL     1     -45.456  -9.701 -30.333  0.00  0.00    +0.000 C 
ATOM      5  C   UNL     1     -46.614  -9.197 -29.479  0.00  0.00    +0.000 C 
ATOM      6  C   UNL     1     -47.756  -8.706 -30.373  0.00  0.00    +0.000 C 
ATOM      7  C   UNL     1     -47.289  -7.668 -31.406  0.00  0.00    +0.000 C 
ATOM      8  C   UNL     1     -46.047  -8.143 -32.169  0.00  0.00    +0.000 C 
ENDROOT
BRANCH   1  14
ATOM      9  C   UNL     1     -42.165  -1.109 -33.326  0.00  0.00    +0.000 C 
ATOM     10  C   UNL     1     -42.425  -2.547 -33.055  0.00  0.00    +0.000 A 
ATOM     11  C   UNL     1     -42.952  -3.044 -31.862  0.00  0.00    +0.000 A 
ATOM     12  C   UNL     1     -43.002  -4.400 -32.101  0.00  0.00    +0.000 A 
ATOM     13  C   UNL     1     -43.436  -5.436 -31.278  0.00  0.00    +0.000 A 
ATOM     14  C   UNL     1     -43.370  -6.755 -31.776  0.00  0.00    +0.000 A 
ATOM     15  C   UNL     1     -42.885  -6.979 -33.088  0.00  0.00    +0.000 A 
ATOM     16  C   UNL     1     -42.454  -5.913 -33.897  0.00  0.00    +0.000 A 
ATOM     17  C   UNL     1     -42.527  -4.632 -33.361  0.00  0.00    +0.000 A 
ATOM     18  O   UNL     1     -42.182  -3.507 -33.928  0.00  0.00    +0.000 OA
ENDBRANCH   1  14
BRANCH   7  19
ATOM     19  C   UNL     1     -47.120  -6.291 -30.833  0.00  0.00    +0.000 A 
ATOM     20  C   UNL     1     -46.986  -5.169 -31.655  0.00  0.00    +0.000 A 
ATOM     21  C   UNL     1     -46.870  -3.910 -31.062  0.00  0.00    +0.000 A 
ATOM     22  N   UNL     1     -46.884  -3.804 -29.708  0.00  0.00    +0.000 NA
ATOM     23  C   UNL     1     -47.010  -4.903 -28.913  0.00  0.00    +0.000 A 
ATOM     24  N   UNL     1     -47.129  -6.133 -29.484  0.00  0.00    +0.000 NA
ATOM     25  N   UNL     1     -46.746  -2.729 -31.857  0.00  0.00    +0.000 N 
ATOM     26  C   UNL     1     -46.248  -2.745 -33.223  0.00  0.00    +0.000 C 
ATOM     27  H   UNL     1     -47.011  -1.866 -31.463  0.00  0.00    +0.000 HD
BRANCH  23  28
ATOM     28  C   UNL     1     -47.026  -4.760 -27.446  0.00  0.00    +0.000 A 
ATOM     29  C   UNL     1     -47.411  -3.554 -26.848  0.00  0.00    +0.000 A 
ATOM     30  C   UNL     1     -47.422  -3.432 -25.458  0.00  0.00    +0.000 A 
ATOM     31  C   UNL     1     -47.045  -4.524 -24.675  0.00  0.00    +0.000 A 
ATOM     32  N   UNL     1     -46.673  -5.690 -25.266  0.00  0.00    +0.000 NA
ATOM     33  C   UNL     1     -46.656  -5.829 -26.619  0.00  0.00    +0.000 A 
ENDBRANCH  23  28
ENDBRANCH   7  19
TORSDOF 3
ENDMDL
MODEL 2
REMARK VINA RESULT:      -7.2     11.105     15.050
REMARK  Name = ZINC000019126373 ZINC19126373 PubChem-92555022
REMARK  3 active torsions:
REMARK  status: ('A' for Active; 'I' for Inactive)
REMARK    1  A    between atoms: C_1  and  C_14
REMARK    2  A    between atoms: C_7  and  C_19
REMARK    3  A    between atoms: C_23  and  C_25
REMARK                            x       y       z     vdW  Elec       q    Type
REMARK                         _______ _______ _______ _____ _____    ______ ____
ROOT
ATOM      1  C   UNL     1     -45.016 -15.484 -18.394  0.00  0.00    +0.000 C 
ATOM      2  O   UNL     1     -44.093 -15.071 -17.639  0.00  0.00    +0.000 OA
ATOM      3  N   UNL     1     -46.260 -14.751 -18.442  0.00  0.00    +0.000 N 
ATOM      4  C   UNL     1     -46.402 -13.523 -17.668  0.00  0.00    +0.000 C 
ATOM      5  C   UNL     1     -46.315 -12.329 -18.613  0.00  0.00    +0.000 C 
ATOM      6  C   UNL     1     -47.371 -12.447 -19.715  0.00  0.00    +0.000 C 
ATOM      7  C   UNL     1     -47.299 -13.792 -20.455  0.00  0.00    +0.000 C 
ATOM      8  C   UNL     1     -47.263 -14.977 -19.482  0.00  0.00    +0.000 C 
ENDROOT
BRANCH   1  14
ATOM      9  C   UNL     1     -42.190 -20.299 -23.232  0.00  0.00    +0.000 C 
ATOM     10  C   UNL     1     -42.914 -19.491 -22.216  0.00  0.00    +0.000 A 
ATOM     11  C   UNL     1     -42.563 -18.193 -21.842  0.00  0.00    +0.000 A 
ATOM     12  C   UNL     1     -43.515 -17.889 -20.894  0.00  0.00    +0.000 A 
ATOM     13  C   UNL     1     -43.693 -16.728 -20.147  0.00  0.00    +0.000 A 
ATOM     14  C   UNL     1     -44.760 -16.685 -19.224  0.00  0.00    +0.000 A 
ATOM     15  C   UNL     1     -45.617 -17.806 -19.100  0.00  0.00    +0.000 A 
ATOM     16  C   UNL     1     -45.415 -18.966 -19.868  0.00  0.00    +0.000 A 
ATOM     17  C   UNL     1     -44.344 -18.967 -20.756  0.00  0.00    +0.000 A 
ATOM     18  O   UNL     1     -43.972 -19.928 -21.559  0.00  0.00    +0.000 OA
ENDBRANCH   1  14
BRANCH   7  19
ATOM     19  C   UNL     1     -46.201 -13.852 -21.476  0.00  0.00    +0.000 A 
ATOM     20  C   UNL     1     -45.303 -12.796 -21.646  0.00  0.00    +0.000 A 
ATOM     21  C   UNL     1     -44.278 -12.926 -22.586  0.00  0.00    +0.000 A 
ATOM     22  N   UNL     1     -44.181 -14.068 -23.315  0.00  0.00    +0.000 NA
ATOM     23  C   UNL     1     -45.064 -15.092 -23.148  0.00  0.00    +0.000 A 
ATOM     24  N   UNL     1     -46.061 -14.974 -22.229  0.00  0.00    +0.000 NA
ATOM     25  N   UNL     1     -43.324 -11.881 -22.787  0.00  0.00    +0.000 N 
ATOM     26  C   UNL     1     -43.590 -10.492 -22.450  0.00  0.00    +0.000 C 
ATOM     27  H   UNL     1     -42.447 -12.112 -23.171  0.00  0.00    +0.000 HD
BRANCH  23  28
ATOM     28  C   UNL     1     -44.934 -16.322 -23.950  0.00  0.00    +0.000 A 
ATOM     29  C   UNL     1     -45.815 -17.395 -23.763  0.00  0.00    +0.000 A 
ATOM     30  C   UNL     1     -45.681 -18.554 -24.527  0.00  0.00    +0.000 A 
ATOM     31  C   UNL     1     -44.661 -18.630 -25.477  0.00  0.00    +0.000 A 
ATOM     32  N   UNL     1     -43.812 -17.583 -25.650  0.00  0.00    +0.000 NA
ATOM     33  C   UNL     1     -43.925 -16.445 -24.915  0.00  0.00    +0.000 A 
ENDBRANCH  23  28
ENDBRANCH   7  19
TORSDOF 3
ENDMDL
MODEL 3
REMARK VINA RESULT:      -7.1     10.059     14.147
REMARK  Name = ZINC000019126373 ZINC19126373 PubChem-92555022
REMARK  3 active torsions:
REMARK  status: ('A' for Active; 'I' for Inactive)
REMARK    1  A    between atoms: C_1  and  C_14
REMARK    2  A    between atoms: C_7  and  C_19
REMARK    3  A    between atoms: C_23  and  C_25
REMARK                            x       y       z     vdW  Elec       q    Type
REMARK                         _______ _______ _______ _____ _____    ______ ____
ROOT
ATOM      1  C   UNL     1     -43.332 -19.548 -26.269  0.00  0.00    +0.000 C 
ATOM      2  O   UNL     1     -44.276 -19.957 -26.999  0.00  0.00    +0.000 OA
ATOM      3  N   UNL     1     -42.119 -19.074 -26.895  0.00  0.00    +0.000 N 
ATOM      4  C   UNL     1     -42.033 -19.023 -28.350  0.00  0.00    +0.000 C 
ATOM      5  C   UNL     1     -42.164 -17.573 -28.804  0.00  0.00    +0.000 C 
ATOM      6  C   UNL     1     -41.097 -16.708 -28.127  0.00  0.00    +0.000 C 
ATOM      7  C   UNL     1     -41.108 -16.852 -26.597  0.00  0.00    +0.000 C 
ATOM      8  C   UNL     1     -41.101 -18.322 -26.163  0.00  0.00    +0.000 C 
ENDROOT
BRANCH   1  14
ATOM      9  C   UNL     1     -45.862 -18.216 -19.457  0.00  0.00    +0.000 C 
ATOM     10  C   UNL     1     -45.198 -18.617 -20.726  0.00  0.00    +0.000 A 
ATOM     11  C   UNL     1     -45.583 -18.175 -21.992  0.00  0.00    +0.000 A 
ATOM     12  C   UNL     1     -44.681 -18.812 -22.816  0.00  0.00    +0.000 A 
ATOM     13  C   UNL     1     -44.554 -18.772 -24.202  0.00  0.00    +0.000 A 
ATOM     14  C   UNL     1     -43.532 -19.540 -24.801  0.00  0.00    +0.000 A 
ATOM     15  C   UNL     1     -42.667 -20.305 -23.981  0.00  0.00    +0.000 A 
ATOM     16  C   UNL     1     -42.817 -20.326 -22.583  0.00  0.00    +0.000 A 
ATOM     17  C   UNL     1     -43.845 -19.563 -22.038  0.00  0.00    +0.000 A 
ATOM     18  O   UNL     1     -44.166 -19.437 -20.779  0.00  0.00    +0.000 OA
ENDBRANCH   1  14
BRANCH   7  19
ATOM     19  C   UNL     1     -42.197 -16.060 -25.933  0.00  0.00    +0.000 A 
ATOM     20  C   UNL     1     -42.243 -15.903 -24.545  0.00  0.00    +0.000 A 
ATOM     21  C   UNL     1     -43.260 -15.124 -23.989  0.00  0.00    +0.000 A 
ATOM     22  N   UNL     1     -44.180 -14.544 -24.803  0.00  0.00    +0.000 NA
ATOM     23  C   UNL     1     -44.132 -14.707 -26.154  0.00  0.00    +0.000 A 
ATOM     24  N   UNL     1     -43.140 -15.460 -26.704  0.00  0.00    +0.000 NA
ATOM     25  N   UNL     1     -43.343 -14.918 -22.577  0.00  0.00    +0.000 N 
ATOM     26  C   UNL     1     -42.753 -15.829 -21.610  0.00  0.00    +0.000 C 
ATOM     27  H   UNL     1     -43.820 -14.123 -22.245  0.00  0.00    +0.000 HD
BRANCH  23  28
ATOM     28  C   UNL     1     -45.140 -14.065 -27.016  0.00  0.00    +0.000 A 
ATOM     29  C   UNL     1     -45.010 -14.085 -28.410  0.00  0.00    +0.000 A 
ATOM     30  C   UNL     1     -45.971 -13.473 -29.214  0.00  0.00    +0.000 A 
ATOM     31  C   UNL     1     -47.061 -12.841 -28.613  0.00  0.00    +0.000 A 
ATOM     32  N   UNL     1     -47.178 -12.827 -27.259  0.00  0.00    +0.000 NA
ATOM     33  C   UNL     1     -46.252 -13.418 -26.457  0.00  0.00    +0.000 A 
ENDBRANCH  23  28
ENDBRANCH   7  19
TORSDOF 3
ENDMDL
