MODEL 1
REMARK VINA RESULT:      -7.4      0.000      0.000
REMARK  Name = ZINC000021907259
REMARK  4 active torsions:
REMARK  status: ('A' for Active; 'I' for Inactive)
REMARK    1  A    between atoms: C_2  and  C_5
REMARK    2  A    between atoms: N_3  and  C_17
REMARK    3  A    between atoms: N_21  and  C_22
REMARK    4  A    between atoms: C_22  and  C_23
REMARK                            x       y       z     vdW  Elec       q    Type
REMARK                         _______ _______ _______ _____ _____    ______ ____
ROOT
ATOM      1  O   UNL     1     -45.226  -6.325 -27.832  0.00  0.00    +0.000 OA
ATOM      2  C   UNL     1     -46.408  -6.006 -27.529  0.00  0.00    +0.000 C 
ATOM      3  N   UNL     1     -47.411  -5.928 -28.552  0.00  0.00    +0.000 N 
ATOM      4  H   UNL     1     -48.314  -5.648 -28.277  0.00  0.00    +0.000 HD
ENDROOT
BRANCH   2   5
ATOM      5  C   UNL     1     -46.779  -5.709 -26.120  0.00  0.00    +0.000 A 
ATOM      6  C   UNL     1     -46.817  -6.779 -25.216  0.00  0.00    +0.000 A 
ATOM      7  C   UNL     1     -47.154  -6.569 -23.881  0.00  0.00    +0.000 A 
ATOM      8  O   UNL     1     -47.184  -7.540 -23.081  0.00  0.00    +0.000 OA
ATOM      9  N   UNL     1     -47.451  -5.320 -23.441  0.00  0.00    +0.000 N 
ATOM     10  C   UNL     1     -47.431  -4.248 -24.274  0.00  0.00    +0.000 A 
ATOM     11  C   UNL     1     -47.747  -2.982 -23.773  0.00  0.00    +0.000 A 
ATOM     12  C   UNL     1     -47.736  -1.869 -24.617  0.00  0.00    +0.000 A 
ATOM     13  C   UNL     1     -47.409  -2.019 -25.967  0.00  0.00    +0.000 A 
ATOM     14  C   UNL     1     -47.092  -3.281 -26.474  0.00  0.00    +0.000 A 
ATOM     15  C   UNL     1     -47.094  -4.412 -25.642  0.00  0.00    +0.000 A 
ATOM     16  H   UNL     1     -47.686  -5.188 -22.495  0.00  0.00    +0.000 HD
ENDBRANCH   2   5
BRANCH   3  17
ATOM     17  C   UNL     1     -47.215  -6.223 -29.941  0.00  0.00    +0.000 A 
ATOM     18  C   UNL     1     -47.461  -7.429 -30.570  0.00  0.00    +0.000 A 
ATOM     19  C   UNL     1     -47.120  -7.177 -31.895  0.00  0.00    +0.000 A 
ATOM     20  N   UNL     1     -46.702  -5.900 -32.023  0.00  0.00    +0.000 NA
ATOM     21  N   UNL     1     -46.768  -5.330 -30.835  0.00  0.00    +0.000 N 
BRANCH  21  22
ATOM     22  C   UNL     1     -46.364  -3.956 -30.567  0.00  0.00    +0.000 C 
BRANCH  22  23
ATOM     23  C   UNL     1     -45.398  -3.485 -31.609  0.00  0.00    +0.000 A 
ATOM     24  C   UNL     1     -45.823  -2.545 -32.555  0.00  0.00    +0.000 A 
ATOM     25  C   UNL     1     -44.948  -2.096 -33.547  0.00  0.00    +0.000 A 
ATOM     26  C   UNL     1     -43.641  -2.584 -33.598  0.00  0.00    +0.000 A 
ATOM     27  C   UNL     1     -43.208  -3.521 -32.656  0.00  0.00    +0.000 A 
ATOM     28  C   UNL     1     -44.079  -3.975 -31.660  0.00  0.00    +0.000 A 
ATOM     29 CL   UNL     1     -43.478  -5.135 -30.487  0.00  0.00    +0.000 Cl
ENDBRANCH  22  23
ENDBRANCH  21  22
ENDBRANCH   3  17
TORSDOF 4
ENDMDL
MODEL 2
REMARK VINA RESULT:      -6.6     10.163     14.168
REMARK  Name = ZINC000021907259
REMARK  4 active torsions:
REMARK  status: ('A' for Active; 'I' for Inactive)
REMARK    1  A    between atoms: C_2  and  C_5
REMARK    2  A    between atoms: N_3  and  C_17
REMARK    3  A    between atoms: N_21  and  C_22
REMARK    4  A    between atoms: C_22  and  C_23
REMARK                            x       y       z     vdW  Elec       q    Type
REMARK                         _______ _______ _______ _____ _____    ______ ____
ROOT
ATOM      1  O   UNL     1     -47.071 -15.492 -24.933  0.00  0.00    +0.000 OA
ATOM      2  C   UNL     1     -45.879 -15.098 -25.047  0.00  0.00    +0.000 C 
ATOM      3  N   UNL     1     -45.148 -14.684 -23.884  0.00  0.00    +0.000 N 
ATOM      4  H   UNL     1     -44.230 -14.356 -24.023  0.00  0.00    +0.000 HD
ENDROOT
BRANCH   2   5
ATOM      5  C   UNL     1     -45.216 -15.057 -26.378  0.00  0.00    +0.000 A 
ATOM      6  C   UNL     1     -44.142 -15.930 -26.599  0.00  0.00    +0.000 A 
ATOM      7  C   UNL     1     -43.479 -15.943 -27.824  0.00  0.00    +0.000 A 
ATOM      8  O   UNL     1     -42.516 -16.733 -28.008  0.00  0.00    +0.000 OA
ATOM      9  N   UNL     1     -43.869 -15.107 -28.820  0.00  0.00    +0.000 N 
ATOM     10  C   UNL     1     -44.902 -14.241 -28.659  0.00  0.00    +0.000 A 
ATOM     11  C   UNL     1     -45.263 -13.398 -29.714  0.00  0.00    +0.000 A 
ATOM     12  C   UNL     1     -46.320 -12.498 -29.564  0.00  0.00    +0.000 A 
ATOM     13  C   UNL     1     -47.019 -12.436 -28.357  0.00  0.00    +0.000 A 
ATOM     14  C   UNL     1     -46.664 -13.275 -27.298  0.00  0.00    +0.000 A 
ATOM     15  C   UNL     1     -45.607 -14.189 -27.429  0.00  0.00    +0.000 A 
ATOM     16  H   UNL     1     -43.391 -15.130 -29.679  0.00  0.00    +0.000 HD
ENDBRANCH   2   5
BRANCH   3  17
ATOM     17  C   UNL     1     -45.637 -14.706 -22.537  0.00  0.00    +0.000 A 
ATOM     18  C   UNL     1     -46.129 -13.631 -21.821  0.00  0.00    +0.000 A 
ATOM     19  C   UNL     1     -46.472 -14.190 -20.594  0.00  0.00    +0.000 A 
ATOM     20  N   UNL     1     -46.194 -15.511 -20.602  0.00  0.00    +0.000 NA
ATOM     21  N   UNL     1     -45.693 -15.814 -21.785  0.00  0.00    +0.000 N 
BRANCH  21  22
ATOM     22  C   UNL     1     -45.240 -17.146 -22.160  0.00  0.00    +0.000 C 
BRANCH  22  23
ATOM     23  C   UNL     1     -45.106 -18.012 -20.947  0.00  0.00    +0.000 A 
ATOM     24  C   UNL     1     -46.208 -18.766 -20.524  0.00  0.00    +0.000 A 
ATOM     25  C   UNL     1     -46.117 -19.573 -19.388  0.00  0.00    +0.000 A 
ATOM     26  C   UNL     1     -44.922 -19.632 -18.667  0.00  0.00    +0.000 A 
ATOM     27  C   UNL     1     -43.817 -18.885 -19.084  0.00  0.00    +0.000 A 
ATOM     28  C   UNL     1     -43.901 -18.075 -20.220  0.00  0.00    +0.000 A 
ATOM     29 CL   UNL     1     -42.477 -17.174 -20.714  0.00  0.00    +0.000 Cl
ENDBRANCH  22  23
ENDBRANCH  21  22
ENDBRANCH   3  17
TORSDOF 4
ENDMDL
MODEL 3
REMARK VINA RESULT:      -6.6      3.343      4.736
REMARK  Name = ZINC000021907259
REMARK  4 active torsions:
REMARK  status: ('A' for Active; 'I' for Inactive)
REMARK    1  A    between atoms: C_2  and  C_5
REMARK    2  A    between atoms: N_3  and  C_17
REMARK    3  A    between atoms: N_21  and  C_22
REMARK    4  A    between atoms: C_22  and  C_23
REMARK                            x       y       z     vdW  Elec       q    Type
REMARK                         _______ _______ _______ _____ _____    ______ ____
ROOT
ATOM      1  O   UNL     1     -47.639  -5.795 -29.863  0.00  0.00    +0.000 OA
ATOM      2  C   UNL     1     -46.495  -6.289 -30.051  0.00  0.00    +0.000 C 
ATOM      3  N   UNL     1     -45.774  -5.985 -31.255  0.00  0.00    +0.000 N 
ATOM      4  H   UNL     1     -44.897  -6.414 -31.374  0.00  0.00    +0.000 HD
ENDROOT
BRANCH   2   5
ATOM      5  C   UNL     1     -45.877  -7.185 -29.039  0.00  0.00    +0.000 A 
ATOM      6  C   UNL     1     -45.079  -6.598 -28.047  0.00  0.00    +0.000 A 
ATOM      7  C   UNL     1     -44.473  -7.381 -27.067  0.00  0.00    +0.000 A 
ATOM      8  O   UNL     1     -43.760  -6.839 -26.183  0.00  0.00    +0.000 OA
ATOM      9  N   UNL     1     -44.651  -8.727 -27.063  0.00  0.00    +0.000 N 
ATOM     10  C   UNL     1     -45.412  -9.348 -28.000  0.00  0.00    +0.000 A 
ATOM     11  C   UNL     1     -45.562 -10.737 -27.955  0.00  0.00    +0.000 A 
ATOM     12  C   UNL     1     -46.337 -11.391 -28.914  0.00  0.00    +0.000 A 
ATOM     13  C   UNL     1     -46.965 -10.659 -29.924  0.00  0.00    +0.000 A 
ATOM     14  C   UNL     1     -46.821  -9.271 -29.975  0.00  0.00    +0.000 A 
ATOM     15  C   UNL     1     -46.048  -8.593 -29.020  0.00  0.00    +0.000 A 
ATOM     16  H   UNL     1     -44.217  -9.266 -26.364  0.00  0.00    +0.000 HD
ENDBRANCH   2   5
BRANCH   3  17
ATOM     17  C   UNL     1     -46.220  -5.110 -32.299  0.00  0.00    +0.000 A 
ATOM     18  C   UNL     1     -46.890  -5.475 -33.451  0.00  0.00    +0.000 A 
ATOM     19  C   UNL     1     -47.094  -4.264 -34.103  0.00  0.00    +0.000 A 
ATOM     20  N   UNL     1     -46.573  -3.257 -33.370  0.00  0.00    +0.000 NA
ATOM     21  N   UNL     1     -46.051  -3.780 -32.277  0.00  0.00    +0.000 N 
BRANCH  21  22
ATOM     22  C   UNL     1     -45.363  -3.006 -31.252  0.00  0.00    +0.000 C 
BRANCH  22  23
ATOM     23  C   UNL     1     -44.203  -2.270 -31.847  0.00  0.00    +0.000 A 
ATOM     24  C   UNL     1     -44.389  -0.957 -32.297  0.00  0.00    +0.000 A 
ATOM     25  C   UNL     1     -43.328  -0.250 -32.868  0.00  0.00    +0.000 A 
ATOM     26  C   UNL     1     -42.074  -0.851 -32.991  0.00  0.00    +0.000 A 
ATOM     27  C   UNL     1     -41.880  -2.160 -32.541  0.00  0.00    +0.000 A 
ATOM     28  C   UNL     1     -42.937  -2.874 -31.970  0.00  0.00    +0.000 A 
ATOM     29 CL   UNL     1     -42.634  -4.507 -31.400  0.00  0.00    +0.000 Cl
ENDBRANCH  22  23
ENDBRANCH  21  22
ENDBRANCH   3  17
TORSDOF 4
ENDMDL
