MODEL 1
REMARK VINA RESULT:      -6.1      0.000      0.000
REMARK  Name = ZINC000011565587 ZINC11565587 PubChem-12304941
REMARK  9 active torsions:
REMARK  status: ('A' for Active; 'I' for Inactive)
REMARK    1  A    between atoms: N_9  and  C_20
REMARK    2  A    between atoms: C_20  and  C_21
REMARK    3  A    between atoms: C_21  and  O_22
REMARK    4  A    between atoms: C_21  and  C_24
REMARK    5  A    between atoms: C_24  and  O_25
REMARK    6  A    between atoms: C_24  and  C_27
REMARK    7  A    between atoms: C_27  and  O_28
REMARK    8  A    between atoms: C_27  and  C_30
REMARK    9  A    between atoms: C_30  and  O_31
REMARK                            x       y       z     vdW  Elec       q    Type
REMARK                         _______ _______ _______ _____ _____    ______ ____
ROOT
ATOM      1  C   UNL     1     -46.502 -16.111 -18.536  0.00  0.00    +0.000 C 
ATOM      2  C   UNL     1     -46.170 -16.308 -19.977  0.00  0.00    +0.000 A 
ATOM      3  C   UNL     1     -46.250 -15.212 -20.838  0.00  0.00    +0.000 A 
ATOM      4  C   UNL     1     -45.947 -15.349 -22.195  0.00  0.00    +0.000 A 
ATOM      5  C   UNL     1     -45.552 -16.613 -22.711  0.00  0.00    +0.000 A 
ATOM      6  C   UNL     1     -45.477 -17.707 -21.833  0.00  0.00    +0.000 A 
ATOM      7  C   UNL     1     -45.782 -17.563 -20.476  0.00  0.00    +0.000 A 
ATOM      8  C   UNL     1     -45.684 -18.759 -19.590  0.00  0.00    +0.000 C 
ATOM      9  N   UNL     1     -45.252 -16.753 -24.046  0.00  0.00    +0.000 N 
ATOM     10  C   UNL     1     -45.341 -15.675 -24.879  0.00  0.00    +0.000 A 
ATOM     11  N   UNL     1     -45.062 -15.767 -26.206  0.00  0.00    +0.000 NA
ATOM     12  C   UNL     1     -45.156 -14.679 -27.017  0.00  0.00    +0.000 A 
ATOM     13  O   UNL     1     -44.891 -14.792 -28.242  0.00  0.00    +0.000 OA
ATOM     14  N   UNL     1     -45.532 -13.469 -26.518  0.00  0.00    +0.000 N 
ATOM     15  C   UNL     1     -45.831 -13.291 -25.203  0.00  0.00    +0.000 A 
ATOM     16  O   UNL     1     -46.175 -12.153 -24.788  0.00  0.00    +0.000 OA
ATOM     17  C   UNL     1     -45.751 -14.372 -24.329  0.00  0.00    +0.000 A 
ATOM     18  N   UNL     1     -46.036 -14.268 -23.010  0.00  0.00    +0.000 NA
ATOM     19  H   UNL     1     -45.590 -12.699 -27.128  0.00  0.00    +0.000 HD
ENDROOT
BRANCH   9  20
ATOM     20  C   UNL     1     -44.829 -18.048 -24.589  0.00  0.00    +0.000 C 
BRANCH  20  21
ATOM     21  C   UNL     1     -43.341 -18.276 -24.344  0.00  0.00    +0.000 C 
BRANCH  21  22
ATOM     22  O   UNL     1     -42.581 -17.677 -25.352  0.00  0.00    +0.000 OA
ATOM     23  H   UNL     1     -43.172 -17.288 -26.014  0.00  0.00    +0.000 HD
ENDBRANCH  21  22
BRANCH  21  24
ATOM     24  C   UNL     1     -43.031 -19.768 -24.234  0.00  0.00    +0.000 C 
BRANCH  24  25
ATOM     25  O   UNL     1     -44.205 -20.515 -24.360  0.00  0.00    +0.000 OA
ATOM     26  H   UNL     1     -44.083 -21.198 -25.036  0.00  0.00    +0.000 HD
ENDBRANCH  24  25
BRANCH  24  27
ATOM     27  C   UNL     1     -42.281 -20.136 -22.949  0.00  0.00    +0.000 C 
BRANCH  27  28
ATOM     28  O   UNL     1     -43.165 -20.257 -21.876  0.00  0.00    +0.000 OA
ATOM     29  H   UNL     1     -42.677 -20.168 -21.042  0.00  0.00    +0.000 HD
ENDBRANCH  27  28
BRANCH  27  30
ATOM     30  C   UNL     1     -41.520 -21.439 -23.126  0.00  0.00    +0.000 C 
BRANCH  30  31
ATOM     31  O   UNL     1     -42.366 -22.523 -22.884  0.00  0.00    +0.000 OA
ATOM     32  H   UNL     1     -42.204 -22.867 -21.992  0.00  0.00    +0.000 HD
ENDBRANCH  30  31
ENDBRANCH  27  30
ENDBRANCH  24  27
ENDBRANCH  21  24
ENDBRANCH  20  21
ENDBRANCH   9  20
TORSDOF 9
ENDMDL
MODEL 2
REMARK VINA RESULT:      -5.8      2.125      3.356
REMARK  Name = ZINC000011565587 ZINC11565587 PubChem-12304941
REMARK  9 active torsions:
REMARK  status: ('A' for Active; 'I' for Inactive)
REMARK    1  A    between atoms: N_9  and  C_20
REMARK    2  A    between atoms: C_20  and  C_21
REMARK    3  A    between atoms: C_21  and  O_22
REMARK    4  A    between atoms: C_21  and  C_24
REMARK    5  A    between atoms: C_24  and  O_25
REMARK    6  A    between atoms: C_24  and  C_27
REMARK    7  A    between atoms: C_27  and  O_28
REMARK    8  A    between atoms: C_27  and  C_30
REMARK    9  A    between atoms: C_30  and  O_31
REMARK                            x       y       z     vdW  Elec       q    Type
REMARK                         _______ _______ _______ _____ _____    ______ ____
ROOT
ATOM      1  C   UNL     1     -47.072 -13.113 -19.878  0.00  0.00    +0.000 C 
ATOM      2  C   UNL     1     -46.537 -14.330 -20.557  0.00  0.00    +0.000 A 
ATOM      3  C   UNL     1     -46.303 -14.281 -21.933  0.00  0.00    +0.000 A 
ATOM      4  C   UNL     1     -45.803 -15.395 -22.609  0.00  0.00    +0.000 A 
ATOM      5  C   UNL     1     -45.527 -16.595 -21.899  0.00  0.00    +0.000 A 
ATOM      6  C   UNL     1     -45.768 -16.629 -20.515  0.00  0.00    +0.000 A 
ATOM      7  C   UNL     1     -46.269 -15.511 -19.843  0.00  0.00    +0.000 A 
ATOM      8  C   UNL     1     -46.506 -15.605 -18.374  0.00  0.00    +0.000 C 
ATOM      9  N   UNL     1     -45.033 -17.694 -22.560  0.00  0.00    +0.000 N 
ATOM     10  C   UNL     1     -44.814 -17.635 -23.907  0.00  0.00    +0.000 A 
ATOM     11  N   UNL     1     -44.336 -18.698 -24.605  0.00  0.00    +0.000 NA
ATOM     12  C   UNL     1     -44.124 -18.616 -25.946  0.00  0.00    +0.000 A 
ATOM     13  O   UNL     1     -43.679 -19.616 -26.568  0.00  0.00    +0.000 OA
ATOM     14  N   UNL     1     -44.389 -17.464 -26.624  0.00  0.00    +0.000 N 
ATOM     15  C   UNL     1     -44.871 -16.355 -26.002  0.00  0.00    +0.000 A 
ATOM     16  O   UNL     1     -45.100 -15.314 -26.671  0.00  0.00    +0.000 OA
ATOM     17  C   UNL     1     -45.106 -16.386 -24.630  0.00  0.00    +0.000 A 
ATOM     18  N   UNL     1     -45.587 -15.320 -23.947  0.00  0.00    +0.000 NA
ATOM     19  H   UNL     1     -44.225 -17.434 -27.594  0.00  0.00    +0.000 HD
ENDROOT
BRANCH   9  20
ATOM     20  C   UNL     1     -44.729 -18.933 -21.837  0.00  0.00    +0.000 C 
BRANCH  20  21
ATOM     21  C   UNL     1     -43.292 -18.922 -21.328  0.00  0.00    +0.000 C 
BRANCH  21  22
ATOM     22  O   UNL     1     -42.449 -19.584 -22.224  0.00  0.00    +0.000 OA
ATOM     23  H   UNL     1     -42.110 -18.951 -22.876  0.00  0.00    +0.000 HD
ENDBRANCH  21  22
BRANCH  21  24
ATOM     24  C   UNL     1     -43.205 -19.539 -19.933  0.00  0.00    +0.000 C 
BRANCH  24  25
ATOM     25  O   UNL     1     -43.216 -18.536 -18.960  0.00  0.00    +0.000 OA
ATOM     26  H   UNL     1     -42.330 -18.150 -18.884  0.00  0.00    +0.000 HD
ENDBRANCH  24  25
BRANCH  24  27
ATOM     27  C   UNL     1     -41.994 -20.462 -19.755  0.00  0.00    +0.000 C 
BRANCH  27  28
ATOM     28  O   UNL     1     -40.808 -19.727 -19.731  0.00  0.00    +0.000 OA
ATOM     29  H   UNL     1     -40.677 -19.297 -20.592  0.00  0.00    +0.000 HD
ENDBRANCH  27  28
BRANCH  27  30
ATOM     30  C   UNL     1     -42.115 -21.266 -18.471  0.00  0.00    +0.000 C 
BRANCH  30  31
ATOM     31  O   UNL     1     -43.457 -21.542 -18.205  0.00  0.00    +0.000 OA
ATOM     32  H   UNL     1     -43.686 -21.216 -17.320  0.00  0.00    +0.000 HD
ENDBRANCH  30  31
ENDBRANCH  27  30
ENDBRANCH  24  27
ENDBRANCH  21  24
ENDBRANCH  20  21
ENDBRANCH   9  20
TORSDOF 9
ENDMDL
MODEL 3
REMARK VINA RESULT:      -5.5      2.006      4.912
REMARK  Name = ZINC000011565587 ZINC11565587 PubChem-12304941
REMARK  9 active torsions:
REMARK  status: ('A' for Active; 'I' for Inactive)
REMARK    1  A    between atoms: N_9  and  C_20
REMARK    2  A    between atoms: C_20  and  C_21
REMARK    3  A    between atoms: C_21  and  O_22
REMARK    4  A    between atoms: C_21  and  C_24
REMARK    5  A    between atoms: C_24  and  O_25
REMARK    6  A    between atoms: C_24  and  C_27
REMARK    7  A    between atoms: C_27  and  O_28
REMARK    8  A    between atoms: C_27  and  C_30
REMARK    9  A    between atoms: C_30  and  O_31
REMARK                            x       y       z     vdW  Elec       q    Type
REMARK                         _______ _______ _______ _____ _____    ______ ____
ROOT
ATOM      1  C   UNL     1     -45.963 -11.048 -25.622  0.00  0.00    +0.000 C 
ATOM      2  C   UNL     1     -45.872 -12.485 -25.229  0.00  0.00    +0.000 A 
ATOM      3  C   UNL     1     -45.649 -12.800 -23.887  0.00  0.00    +0.000 A 
ATOM      4  C   UNL     1     -45.557 -14.130 -23.475  0.00  0.00    +0.000 A 
ATOM      5  C   UNL     1     -45.692 -15.181 -24.423  0.00  0.00    +0.000 A 
ATOM      6  C   UNL     1     -45.915 -14.849 -25.770  0.00  0.00    +0.000 A 
ATOM      7  C   UNL     1     -46.005 -13.514 -26.177  0.00  0.00    +0.000 A 
ATOM      8  C   UNL     1     -46.244 -13.222 -27.619  0.00  0.00    +0.000 C 
ATOM      9  N   UNL     1     -45.603 -16.493 -24.021  0.00  0.00    +0.000 N 
ATOM     10  C   UNL     1     -45.378 -16.787 -22.706  0.00  0.00    +0.000 A 
ATOM     11  N   UNL     1     -45.276 -18.067 -22.264  0.00  0.00    +0.000 NA
ATOM     12  C   UNL     1     -45.052 -18.338 -20.950  0.00  0.00    +0.000 A 
ATOM     13  O   UNL     1     -44.962 -19.533 -20.567  0.00  0.00    +0.000 OA
ATOM     14  N   UNL     1     -44.926 -17.328 -20.043  0.00  0.00    +0.000 N 
ATOM     15  C   UNL     1     -45.014 -16.020 -20.403  0.00  0.00    +0.000 A 
ATOM     16  O   UNL     1     -44.890 -15.122 -19.529  0.00  0.00    +0.000 OA
ATOM     17  C   UNL     1     -45.241 -15.688 -21.736  0.00  0.00    +0.000 A 
ATOM     18  N   UNL     1     -45.337 -14.408 -22.165  0.00  0.00    +0.000 NA
ATOM     19  H   UNL     1     -44.766 -17.553 -19.098  0.00  0.00    +0.000 HD
ENDROOT
BRANCH   9  20
ATOM     20  C   UNL     1     -45.755 -17.586 -24.986  0.00  0.00    +0.000 C 
BRANCH  20  21
ATOM     21  C   UNL     1     -44.403 -17.984 -25.569  0.00  0.00    +0.000 C 
BRANCH  21  22
ATOM     22  O   UNL     1     -44.289 -17.540 -26.889  0.00  0.00    +0.000 OA
ATOM     23  H   UNL     1     -44.797 -16.722 -26.999  0.00  0.00    +0.000 HD
ENDBRANCH  21  22
BRANCH  21  24
ATOM     24  C   UNL     1     -44.194 -19.494 -25.477  0.00  0.00    +0.000 C 
BRANCH  24  25
ATOM     25  O   UNL     1     -45.144 -20.061 -24.622  0.00  0.00    +0.000 OA
ATOM     26  H   UNL     1     -44.827 -20.010 -23.708  0.00  0.00    +0.000 HD
ENDBRANCH  24  25
BRANCH  24  27
ATOM     27  C   UNL     1     -42.773 -19.883 -25.053  0.00  0.00    +0.000 C 
BRANCH  27  28
ATOM     28  O   UNL     1     -41.824 -19.212 -25.824  0.00  0.00    +0.000 OA
ATOM     29  H   UNL     1     -41.279 -19.858 -26.301  0.00  0.00    +0.000 HD
ENDBRANCH  27  28
BRANCH  27  30
ATOM     30  C   UNL     1     -42.546 -19.567 -23.584  0.00  0.00    +0.000 C 
BRANCH  30  31
ATOM     31  O   UNL     1     -43.191 -20.514 -22.787  0.00  0.00    +0.000 OA
ATOM     32  H   UNL     1     -44.113 -20.245 -22.646  0.00  0.00    +0.000 HD
ENDBRANCH  30  31
ENDBRANCH  27  30
ENDBRANCH  24  27
ENDBRANCH  21  24
ENDBRANCH  20  21
ENDBRANCH   9  20
TORSDOF 9
ENDMDL
