MODEL 1
REMARK VINA RESULT:      -7.0      0.000      0.000
REMARK  Name = ZINC000031809031
REMARK  1 active torsions:
REMARK  status: ('A' for Active; 'I' for Inactive)
REMARK    1  A    between atoms: C_7  and  C_24
REMARK                            x       y       z     vdW  Elec       q    Type
REMARK                         _______ _______ _______ _____ _____    ______ ____
ROOT
ATOM      1  C   UNL     1     -47.440  -4.454 -26.205  0.00  0.00    +0.000 C 
ATOM      2  C   UNL     1     -46.968  -4.713 -27.595  0.00  0.00    +0.000 A 
ATOM      3  N   UNL     1     -46.823  -3.748 -28.519  0.00  0.00    +0.000 NA
ATOM      4  N   UNL     1     -46.387  -4.320 -29.630  0.00  0.00    +0.000 N 
ATOM      5  C   UNL     1     -46.218  -5.647 -29.425  0.00  0.00    +0.000 A 
ATOM      6  C   UNL     1     -46.603  -5.942 -28.119  0.00  0.00    +0.000 A 
ATOM      7  C   UNL     1     -46.598  -7.228 -27.339  0.00  0.00    +0.000 C 
ATOM      8  S   UNL     1     -46.861  -8.736 -28.322  0.00  0.00    +0.000 S 
ATOM      9  C   UNL     1     -45.224  -8.644 -29.084  0.00  0.00    +0.000 C 
ATOM     10  C   UNL     1     -45.303  -7.899 -30.364  0.00  0.00    +0.000 C 
ATOM     11  O   UNL     1     -44.985  -8.495 -31.424  0.00  0.00    +0.000 OA
ATOM     12  N   UNL     1     -45.688  -6.522 -30.435  0.00  0.00    +0.000 N 
ATOM     13  H   UNL     1     -45.571  -6.108 -31.320  0.00  0.00    +0.000 HD
ATOM     14  C   UNL     1     -46.093  -3.573 -30.819  0.00  0.00    +0.000 A 
ATOM     15  N   UNL     1     -45.560  -2.317 -30.725  0.00  0.00    +0.000 NA
ATOM     16  C   UNL     1     -45.295  -1.565 -31.840  0.00  0.00    +0.000 A 
ATOM     17  N   UNL     1     -45.573  -2.052 -33.087  0.00  0.00    +0.000 NA
ATOM     18  C   UNL     1     -46.113  -3.290 -33.182  0.00  0.00    +0.000 A 
ATOM     19  N   UNL     1     -46.503  -3.907 -34.304  0.00  0.00    +0.000 N 
ATOM     20  C   UNL     1     -47.024  -5.072 -33.832  0.00  0.00    +0.000 A 
ATOM     21  N   UNL     1     -46.974  -5.190 -32.476  0.00  0.00    +0.000 NA
ATOM     22  C   UNL     1     -46.381  -4.049 -32.098  0.00  0.00    +0.000 A 
ATOM     23  H   UNL     1     -46.431  -3.596 -35.235  0.00  0.00    +0.000 HD
ENDROOT
BRANCH   7  24
ATOM     24  C   UNL     1     -45.490  -7.335 -26.324  0.00  0.00    +0.000 A 
ATOM     25  C   UNL     1     -44.166  -7.027 -26.680  0.00  0.00    +0.000 A 
ATOM     26  C   UNL     1     -43.138  -7.122 -25.740  0.00  0.00    +0.000 A 
ATOM     27  C   UNL     1     -43.424  -7.525 -24.433  0.00  0.00    +0.000 A 
ATOM     28  F   UNL     1     -42.427  -7.619 -23.521  0.00  0.00    +0.000 F 
ATOM     29  C   UNL     1     -44.737  -7.832 -24.068  0.00  0.00    +0.000 A 
ATOM     30  C   UNL     1     -45.770  -7.739 -25.004  0.00  0.00    +0.000 A 
ATOM     31 CL   UNL     1     -47.405  -8.127 -24.488  0.00  0.00    +0.000 Cl
ENDBRANCH   7  24
TORSDOF 1
ENDMDL
MODEL 2
REMARK VINA RESULT:      -6.9      5.344      7.307
REMARK  Name = ZINC000031809031
REMARK  1 active torsions:
REMARK  status: ('A' for Active; 'I' for Inactive)
REMARK    1  A    between atoms: C_7  and  C_24
REMARK                            x       y       z     vdW  Elec       q    Type
REMARK                         _______ _______ _______ _____ _____    ______ ____
ROOT
ATOM      1  C   UNL     1     -47.199  -3.383 -33.708  0.00  0.00    +0.000 C 
ATOM      2  C   UNL     1     -46.528  -4.710 -33.798  0.00  0.00    +0.000 A 
ATOM      3  N   UNL     1     -46.838  -5.635 -34.723  0.00  0.00    +0.000 NA
ATOM      4  N   UNL     1     -46.056  -6.683 -34.519  0.00  0.00    +0.000 N 
ATOM      5  C   UNL     1     -45.216  -6.433 -33.488  0.00  0.00    +0.000 A 
ATOM      6  C   UNL     1     -45.507  -5.168 -32.982  0.00  0.00    +0.000 A 
ATOM      7  C   UNL     1     -44.883  -4.364 -31.874  0.00  0.00    +0.000 C 
ATOM      8  S   UNL     1     -44.189  -5.337 -30.502  0.00  0.00    +0.000 S 
ATOM      9  C   UNL     1     -42.798  -5.928 -31.493  0.00  0.00    +0.000 C 
ATOM     10  C   UNL     1     -43.142  -7.225 -32.125  0.00  0.00    +0.000 C 
ATOM     11  O   UNL     1     -42.450  -8.234 -31.836  0.00  0.00    +0.000 OA
ATOM     12  N   UNL     1     -44.201  -7.365 -33.077  0.00  0.00    +0.000 N 
ATOM     13  H   UNL     1     -44.241  -8.241 -33.522  0.00  0.00    +0.000 HD
ATOM     14  C   UNL     1     -46.098  -7.851 -35.351  0.00  0.00    +0.000 A 
ATOM     15  N   UNL     1     -46.342  -7.729 -36.692  0.00  0.00    +0.000 NA
ATOM     16  C   UNL     1     -46.418  -8.826 -37.510  0.00  0.00    +0.000 A 
ATOM     17  N   UNL     1     -46.265 -10.085 -36.997  0.00  0.00    +0.000 NA
ATOM     18  C   UNL     1     -46.036 -10.209 -35.668  0.00  0.00    +0.000 A 
ATOM     19  N   UNL     1     -45.918 -11.351 -34.982  0.00  0.00    +0.000 N 
ATOM     20  C   UNL     1     -45.769 -10.911 -33.703  0.00  0.00    +0.000 A 
ATOM     21  N   UNL     1     -45.796  -9.555 -33.579  0.00  0.00    +0.000 NA
ATOM     22  C   UNL     1     -45.956  -9.143 -34.844  0.00  0.00    +0.000 A 
ATOM     23  H   UNL     1     -45.935 -12.276 -35.318  0.00  0.00    +0.000 HD
ENDROOT
BRANCH   7  24
ATOM     24  C   UNL     1     -43.999  -3.238 -32.344  0.00  0.00    +0.000 A 
ATOM     25  C   UNL     1     -42.945  -3.487 -33.240  0.00  0.00    +0.000 A 
ATOM     26  C   UNL     1     -42.127  -2.445 -33.679  0.00  0.00    +0.000 A 
ATOM     27  C   UNL     1     -42.355  -1.142 -33.229  0.00  0.00    +0.000 A 
ATOM     28  F   UNL     1     -41.561  -0.131 -33.654  0.00  0.00    +0.000 F 
ATOM     29  C   UNL     1     -43.401  -0.884 -32.340  0.00  0.00    +0.000 A 
ATOM     30  C   UNL     1     -44.224  -1.923 -31.896  0.00  0.00    +0.000 A 
ATOM     31 CL   UNL     1     -45.531  -1.539 -30.786  0.00  0.00    +0.000 Cl
ENDBRANCH   7  24
TORSDOF 1
ENDMDL
MODEL 3
REMARK VINA RESULT:      -6.7      3.200      4.185
REMARK  Name = ZINC000031809031
REMARK  1 active torsions:
REMARK  status: ('A' for Active; 'I' for Inactive)
REMARK    1  A    between atoms: C_7  and  C_24
REMARK                            x       y       z     vdW  Elec       q    Type
REMARK                         _______ _______ _______ _____ _____    ______ ____
ROOT
ATOM      1  C   UNL     1     -42.620  -6.784 -27.484  0.00  0.00    +0.000 C 
ATOM      2  C   UNL     1     -43.086  -6.132 -28.741  0.00  0.00    +0.000 A 
ATOM      3  N   UNL     1     -42.259  -5.772 -29.738  0.00  0.00    +0.000 NA
ATOM      4  N   UNL     1     -42.998  -5.229 -30.692  0.00  0.00    +0.000 N 
ATOM      5  C   UNL     1     -44.303  -5.262 -30.336  0.00  0.00    +0.000 A 
ATOM      6  C   UNL     1     -44.396  -5.825 -29.064  0.00  0.00    +0.000 A 
ATOM      7  C   UNL     1     -45.581  -6.138 -28.193  0.00  0.00    +0.000 C 
ATOM      8  S   UNL     1     -47.006  -5.023 -28.385  0.00  0.00    +0.000 S 
ATOM      9  C   UNL     1     -47.432  -5.688 -30.011  0.00  0.00    +0.000 C 
ATOM     10  C   UNL     1     -46.774  -4.889 -31.073  0.00  0.00    +0.000 C 
ATOM     11  O   UNL     1     -47.498  -4.292 -31.909  0.00  0.00    +0.000 OA
ATOM     12  N   UNL     1     -45.352  -4.802 -31.205  0.00  0.00    +0.000 N 
ATOM     13  H   UNL     1     -45.042  -4.355 -32.025  0.00  0.00    +0.000 HD
ATOM     14  C   UNL     1     -42.439  -4.758 -31.927  0.00  0.00    +0.000 A 
ATOM     15  N   UNL     1     -41.385  -5.417 -32.498  0.00  0.00    +0.000 NA
ATOM     16  C   UNL     1     -40.808  -4.977 -33.661  0.00  0.00    +0.000 A 
ATOM     17  N   UNL     1     -41.269  -3.847 -34.278  0.00  0.00    +0.000 NA
ATOM     18  C   UNL     1     -42.303  -3.185 -33.708  0.00  0.00    +0.000 A 
ATOM     19  N   UNL     1     -42.848  -2.038 -34.132  0.00  0.00    +0.000 N 
ATOM     20  C   UNL     1     -43.784  -1.788 -33.177  0.00  0.00    +0.000 A 
ATOM     21  N   UNL     1     -43.831  -2.726 -32.190  0.00  0.00    +0.000 NA
ATOM     22  C   UNL     1     -42.888  -3.601 -32.565  0.00  0.00    +0.000 A 
ATOM     23  H   UNL     1     -42.626  -1.510 -34.932  0.00  0.00    +0.000 HD
ENDROOT
BRANCH   7  24
ATOM     24  C   UNL     1     -45.941  -7.600 -28.135  0.00  0.00    +0.000 A 
ATOM     25  C   UNL     1     -45.766  -8.421 -29.261  0.00  0.00    +0.000 A 
ATOM     26  C   UNL     1     -46.095  -9.777 -29.208  0.00  0.00    +0.000 A 
ATOM     27  C   UNL     1     -46.602 -10.326 -28.028  0.00  0.00    +0.000 A 
ATOM     28  F   UNL     1     -46.923 -11.641 -27.976  0.00  0.00    +0.000 F 
ATOM     29  C   UNL     1     -46.777  -9.519 -26.902  0.00  0.00    +0.000 A 
ATOM     30  C   UNL     1     -46.450  -8.161 -26.948  0.00  0.00    +0.000 A 
ATOM     31 CL   UNL     1     -46.681  -7.194 -25.498  0.00  0.00    +0.000 Cl
ENDBRANCH   7  24
TORSDOF 1
ENDMDL
