MODEL 1
REMARK VINA RESULT:      -7.5      0.000      0.000
REMARK  Name = ZINC000409246055 PubChem-126252235
REMARK  6 active torsions:
REMARK  status: ('A' for Active; 'I' for Inactive)
REMARK    1  A    between atoms: N_1  and  C_32
REMARK    2  A    between atoms: C_8  and  C_12
REMARK    3  A    between atoms: N_19  and  C_21
REMARK    4  A    between atoms: C_21  and  C_22
REMARK    5  A    between atoms: C_29  and  O_36
REMARK    6  A    between atoms: C_33  and  O_37
REMARK                            x       y       z     vdW  Elec       q    Type
REMARK                         _______ _______ _______ _____ _____    ______ ____
ROOT
ATOM      1  N   UNL     1     -46.624 -10.069 -27.094  0.00  0.00    +0.000 N 
ATOM      2  C   UNL     1     -46.635 -11.463 -26.725  0.00  0.00    +0.000 C 
ATOM      3  O   UNL     1     -46.536 -11.809 -25.518  0.00  0.00    +0.000 OA
ATOM      4  N   UNL     1     -46.750 -12.473 -27.730  0.00  0.00    +0.000 N 
ATOM      5  C   UNL     1     -46.755 -12.143 -29.118  0.00  0.00    +0.000 C 
ATOM      6  O   UNL     1     -46.837 -13.067 -29.971  0.00  0.00    +0.000 OA
ATOM      7  C   UNL     1     -46.636 -10.735 -29.538  0.00  0.00    +0.000 C 
ATOM      8  C   UNL     1     -46.438 -10.464 -30.840  0.00  0.00    +0.000 C 
ATOM      9  C   UNL     1     -46.774  -9.703 -28.480  0.00  0.00    +0.000 C 
ATOM     10  O   UNL     1     -47.110  -8.524 -28.781  0.00  0.00    +0.000 OA
ATOM     11  H   UNL     1     -46.827 -13.416 -27.458  0.00  0.00    +0.000 HD
ENDROOT
BRANCH   8  12
ATOM     12  C   UNL     1     -46.120  -9.162 -31.451  0.00  0.00    +0.000 A 
ATOM     13  C   UNL     1     -47.138  -8.321 -31.964  0.00  0.00    +0.000 A 
ATOM     14  C   UNL     1     -46.833  -7.050 -32.477  0.00  0.00    +0.000 A 
ATOM     15  C   UNL     1     -45.498  -6.648 -32.444  0.00  0.00    +0.000 A 
ATOM     16  C   UNL     1     -44.515  -7.443 -31.926  0.00  0.00    +0.000 A 
ATOM     17  C   UNL     1     -43.313  -6.769 -32.027  0.00  0.00    +0.000 A 
ATOM     18  C   UNL     1     -43.643  -5.550 -32.628  0.00  0.00    +0.000 A 
ATOM     19  N   UNL     1     -44.973  -5.490 -32.868  0.00  0.00    +0.000 N 
ATOM     20  C   UNL     1     -44.790  -8.705 -31.408  0.00  0.00    +0.000 A 
BRANCH  19  21
ATOM     21  C   UNL     1     -45.675  -4.391 -33.517  0.00  0.00    +0.000 C 
BRANCH  21  22
ATOM     22  C   UNL     1     -45.266  -3.090 -32.914  0.00  0.00    +0.000 A 
ATOM     23  C   UNL     1     -45.687  -2.752 -31.624  0.00  0.00    +0.000 A 
ATOM     24  C   UNL     1     -45.329  -1.519 -31.070  0.00  0.00    +0.000 A 
ATOM     25  C   UNL     1     -44.552  -0.621 -31.808  0.00  0.00    +0.000 A 
ATOM     26  C   UNL     1     -44.134  -0.955 -33.100  0.00  0.00    +0.000 A 
ATOM     27  F   UNL     1     -43.386  -0.082 -33.817  0.00  0.00    +0.000 F 
ATOM     28  C   UNL     1     -44.493  -2.188 -33.654  0.00  0.00    +0.000 A 
ENDBRANCH  21  22
ENDBRANCH  19  21
ENDBRANCH   8  12
BRANCH   1  32
ATOM     29  C   UNL     1     -46.393  -7.026 -24.126  0.00  0.00    +0.000 A 
ATOM     30  C   UNL     1     -47.618  -7.643 -24.422  0.00  0.00    +0.000 A 
ATOM     31  C   UNL     1     -47.684  -8.644 -25.394  0.00  0.00    +0.000 A 
ATOM     32  C   UNL     1     -46.531  -9.047 -26.083  0.00  0.00    +0.000 A 
ATOM     33  C   UNL     1     -45.296  -8.435 -25.785  0.00  0.00    +0.000 A 
ATOM     34  C   UNL     1     -45.242  -7.427 -24.809  0.00  0.00    +0.000 A 
BRANCH  29  36
ATOM     35  C   UNL     1     -46.960  -4.771 -23.284  0.00  0.00    +0.000 C 
ATOM     36  O   UNL     1     -46.294  -6.021 -23.162  0.00  0.00    +0.000 OA
ENDBRANCH  29  36
BRANCH  33  37
ATOM     37  O   UNL     1     -44.139  -8.849 -26.457  0.00  0.00    +0.000 OA
ATOM     38  C   UNL     1     -42.934  -8.096 -26.451  0.00  0.00    +0.000 C 
ENDBRANCH  33  37
ENDBRANCH   1  32
TORSDOF 6
ENDMDL
MODEL 2
REMARK VINA RESULT:      -7.4      4.123      6.658
REMARK  Name = ZINC000409246055 PubChem-126252235
REMARK  6 active torsions:
REMARK  status: ('A' for Active; 'I' for Inactive)
REMARK    1  A    between atoms: N_1  and  C_32
REMARK    2  A    between atoms: C_8  and  C_12
REMARK    3  A    between atoms: N_19  and  C_21
REMARK    4  A    between atoms: C_21  and  C_22
REMARK    5  A    between atoms: C_29  and  O_36
REMARK    6  A    between atoms: C_33  and  O_37
REMARK                            x       y       z     vdW  Elec       q    Type
REMARK                         _______ _______ _______ _____ _____    ______ ____
ROOT
ATOM      1  N   UNL     1     -45.757  -5.789 -30.988  0.00  0.00    +0.000 N 
ATOM      2  C   UNL     1     -46.776  -6.565 -31.653  0.00  0.00    +0.000 C 
ATOM      3  O   UNL     1     -47.227  -7.617 -31.127  0.00  0.00    +0.000 OA
ATOM      4  N   UNL     1     -47.280  -6.152 -32.924  0.00  0.00    +0.000 N 
ATOM      5  C   UNL     1     -46.729  -5.032 -33.615  0.00  0.00    +0.000 C 
ATOM      6  O   UNL     1     -47.190  -4.716 -34.745  0.00  0.00    +0.000 OA
ATOM      7  C   UNL     1     -45.612  -4.278 -33.017  0.00  0.00    +0.000 C 
ATOM      8  C   UNL     1     -44.977  -3.361 -33.767  0.00  0.00    +0.000 C 
ATOM      9  C   UNL     1     -45.285  -4.571 -31.599  0.00  0.00    +0.000 C 
ATOM     10  O   UNL     1     -44.673  -3.719 -30.897  0.00  0.00    +0.000 OA
ATOM     11  H   UNL     1     -48.024  -6.652 -33.332  0.00  0.00    +0.000 HD
ENDROOT
BRANCH   8  12
ATOM     12  C   UNL     1     -43.743  -2.628 -33.439  0.00  0.00    +0.000 A 
ATOM     13  C   UNL     1     -43.786  -1.326 -32.883  0.00  0.00    +0.000 A 
ATOM     14  C   UNL     1     -42.606  -0.663 -32.505  0.00  0.00    +0.000 A 
ATOM     15  C   UNL     1     -41.403  -1.344 -32.682  0.00  0.00    +0.000 A 
ATOM     16  C   UNL     1     -41.356  -2.610 -33.193  0.00  0.00    +0.000 A 
ATOM     17  C   UNL     1     -40.034  -3.012 -33.238  0.00  0.00    +0.000 A 
ATOM     18  C   UNL     1     -39.318  -1.921 -32.733  0.00  0.00    +0.000 A 
ATOM     19  N   UNL     1     -40.164  -0.921 -32.394  0.00  0.00    +0.000 N 
ATOM     20  C   UNL     1     -42.509  -3.291 -33.573  0.00  0.00    +0.000 A 
BRANCH  19  21
ATOM     21  C   UNL     1     -39.778   0.382 -31.871  0.00  0.00    +0.000 C 
BRANCH  21  22
ATOM     22  C   UNL     1     -38.923   1.102 -32.858  0.00  0.00    +0.000 A 
ATOM     23  C   UNL     1     -37.581   1.368 -32.561  0.00  0.00    +0.000 A 
ATOM     24  C   UNL     1     -36.788   2.070 -33.474  0.00  0.00    +0.000 A 
ATOM     25  C   UNL     1     -37.336   2.511 -34.681  0.00  0.00    +0.000 A 
ATOM     26  C   UNL     1     -38.678   2.251 -34.977  0.00  0.00    +0.000 A 
ATOM     27  F   UNL     1     -39.210   2.683 -36.147  0.00  0.00    +0.000 F 
ATOM     28  C   UNL     1     -39.472   1.549 -34.065  0.00  0.00    +0.000 A 
ENDBRANCH  21  22
ENDBRANCH  19  21
ENDBRANCH   8  12
BRANCH   1  32
ATOM     29  C   UNL     1     -44.279  -7.017 -27.191  0.00  0.00    +0.000 A 
ATOM     30  C   UNL     1     -43.595  -7.358 -28.367  0.00  0.00    +0.000 A 
ATOM     31  C   UNL     1     -44.084  -6.947 -29.608  0.00  0.00    +0.000 A 
ATOM     32  C   UNL     1     -45.261  -6.188 -29.697  0.00  0.00    +0.000 A 
ATOM     33  C   UNL     1     -45.948  -5.836 -28.517  0.00  0.00    +0.000 A 
ATOM     34  C   UNL     1     -45.449  -6.258 -27.274  0.00  0.00    +0.000 A 
BRANCH  29  36
ATOM     35  C   UNL     1     -44.522  -7.132 -24.732  0.00  0.00    +0.000 C 
ATOM     36  O   UNL     1     -43.817  -7.414 -25.934  0.00  0.00    +0.000 OA
ENDBRANCH  29  36
BRANCH  33  37
ATOM     37  O   UNL     1     -47.111  -5.061 -28.599  0.00  0.00    +0.000 OA
ATOM     38  C   UNL     1     -47.477  -4.112 -27.607  0.00  0.00    +0.000 C 
ENDBRANCH  33  37
ENDBRANCH   1  32
TORSDOF 6
ENDMDL
MODEL 3
REMARK VINA RESULT:      -7.1      3.135      7.816
REMARK  Name = ZINC000409246055 PubChem-126252235
REMARK  6 active torsions:
REMARK  status: ('A' for Active; 'I' for Inactive)
REMARK    1  A    between atoms: N_1  and  C_32
REMARK    2  A    between atoms: C_8  and  C_12
REMARK    3  A    between atoms: N_19  and  C_21
REMARK    4  A    between atoms: C_21  and  C_22
REMARK    5  A    between atoms: C_29  and  O_36
REMARK    6  A    between atoms: C_33  and  O_37
REMARK                            x       y       z     vdW  Elec       q    Type
REMARK                         _______ _______ _______ _____ _____    ______ ____
ROOT
ATOM      1  N   UNL     1     -44.396  -6.557 -31.106  0.00  0.00    +0.000 N 
ATOM      2  C   UNL     1     -44.334  -7.495 -32.200  0.00  0.00    +0.000 C 
ATOM      3  O   UNL     1     -44.354  -7.092 -33.393  0.00  0.00    +0.000 OA
ATOM      4  N   UNL     1     -44.258  -8.899 -31.941  0.00  0.00    +0.000 N 
ATOM      5  C   UNL     1     -44.342  -9.416 -30.614  0.00  0.00    +0.000 C 
ATOM      6  O   UNL     1     -44.292 -10.663 -30.434  0.00  0.00    +0.000 OA
ATOM      7  C   UNL     1     -44.515  -8.494 -29.477  0.00  0.00    +0.000 C 
ATOM      8  C   UNL     1     -44.795  -9.008 -28.266  0.00  0.00    +0.000 C 
ATOM      9  C   UNL     1     -44.336  -7.046 -29.751  0.00  0.00    +0.000 C 
ATOM     10  O   UNL     1     -44.043  -6.253 -28.814  0.00  0.00    +0.000 OA
ATOM     11  H   UNL     1     -44.145  -9.521 -32.696  0.00  0.00    +0.000 HD
ENDROOT
BRANCH   8  12
ATOM     12  C   UNL     1     -45.176  -8.278 -27.045  0.00  0.00    +0.000 A 
ATOM     13  C   UNL     1     -46.507  -7.845 -26.832  0.00  0.00    +0.000 A 
ATOM     14  C   UNL     1     -46.877  -7.214 -25.632  0.00  0.00    +0.000 A 
ATOM     15  C   UNL     1     -45.890  -7.052 -24.661  0.00  0.00    +0.000 A 
ATOM     16  C   UNL     1     -44.610  -7.491 -24.850  0.00  0.00    +0.000 A 
ATOM     17  C   UNL     1     -43.876  -7.194 -23.717  0.00  0.00    +0.000 A 
ATOM     18  C   UNL     1     -44.788  -6.561 -22.865  0.00  0.00    +0.000 A 
ATOM     19  N   UNL     1     -46.006  -6.489 -23.451  0.00  0.00    +0.000 N 
ATOM     20  C   UNL     1     -44.217  -8.121 -26.028  0.00  0.00    +0.000 A 
BRANCH  19  21
ATOM     21  C   UNL     1     -47.191  -5.864 -22.880  0.00  0.00    +0.000 C 
BRANCH  21  22
ATOM     22  C   UNL     1     -47.126  -4.384 -23.049  0.00  0.00    +0.000 A 
ATOM     23  C   UNL     1     -46.981  -3.556 -21.931  0.00  0.00    +0.000 A 
ATOM     24  C   UNL     1     -46.951  -2.166 -22.088  0.00  0.00    +0.000 A 
ATOM     25  C   UNL     1     -47.071  -1.604 -23.361  0.00  0.00    +0.000 A 
ATOM     26  C   UNL     1     -47.221  -2.430 -24.480  0.00  0.00    +0.000 A 
ATOM     27  F   UNL     1     -47.342  -1.883 -25.714  0.00  0.00    +0.000 F 
ATOM     28  C   UNL     1     -47.251  -3.819 -24.324  0.00  0.00    +0.000 A 
ENDBRANCH  21  22
ENDBRANCH  19  21
ENDBRANCH   8  12
BRANCH   1  32
ATOM     29  C   UNL     1     -44.514  -2.364 -31.826  0.00  0.00    +0.000 A 
ATOM     30  C   UNL     1     -43.294  -3.056 -31.836  0.00  0.00    +0.000 A 
ATOM     31  C   UNL     1     -43.265  -4.432 -31.603  0.00  0.00    +0.000 A 
ATOM     32  C   UNL     1     -44.450  -5.140 -31.360  0.00  0.00    +0.000 A 
ATOM     33  C   UNL     1     -45.681  -4.452 -31.356  0.00  0.00    +0.000 A 
ATOM     34  C   UNL     1     -45.698  -3.067 -31.587  0.00  0.00    +0.000 A 
BRANCH  29  36
ATOM     35  C   UNL     1     -43.741  -0.324 -32.991  0.00  0.00    +0.000 C 
ATOM     36  O   UNL     1     -44.577  -0.987 -32.053  0.00  0.00    +0.000 OA
ENDBRANCH  29  36
BRANCH  33  37
ATOM     37  O   UNL     1     -46.869  -5.159 -31.133  0.00  0.00    +0.000 OA
ATOM     38  C   UNL     1     -47.573  -5.114 -29.901  0.00  0.00    +0.000 C 
ENDBRANCH  33  37
ENDBRANCH   1  32
TORSDOF 6
ENDMDL
