MODEL 1
REMARK VINA RESULT:      -6.2      0.000      0.000
REMARK  Name = ZINC000023755315 ZINC23755315 CSC028219200 MCULE-8163591876 MolPort-009-162-197 PubChem-31343882
REMARK  2 active torsions:
REMARK  status: ('A' for Active; 'I' for Inactive)
REMARK    1  A    between atoms: C_1  and  C_12
REMARK    2  A    between atoms: N_3  and  C_16
REMARK                            x       y       z     vdW  Elec       q    Type
REMARK                         _______ _______ _______ _____ _____    ______ ____
ROOT
ATOM      1  C   UNL     1     -45.338 -18.833 -24.930  0.00  0.00    +0.000 C 
ATOM      2  O   UNL     1     -46.230 -19.608 -25.367  0.00  0.00    +0.000 OA
ATOM      3  N   UNL     1     -44.824 -17.817 -25.804  0.00  0.00    +0.000 N 
ATOM      4  H   UNL     1     -44.736 -18.050 -26.757  0.00  0.00    +0.000 HD
ENDROOT
BRANCH   1  12
ATOM      5  C   UNL     1     -42.307 -20.220 -19.187  0.00  0.00    +0.000 C 
ATOM      6  N   UNL     1     -43.402 -19.461 -19.766  0.00  0.00    +0.000 N 
ATOM      7  N   UNL     1     -44.230 -18.688 -19.070  0.00  0.00    +0.000 NA
ATOM      8  C   UNL     1     -45.115 -18.144 -19.942  0.00  0.00    +0.000 A 
ATOM      9  C   UNL     1     -46.213 -17.217 -19.555  0.00  0.00    +0.000 C 
ATOM     10  C   UNL     1     -44.826 -18.593 -21.214  0.00  0.00    +0.000 A 
ATOM     11  C   UNL     1     -45.392 -18.366 -22.461  0.00  0.00    +0.000 A 
ATOM     12  C   UNL     1     -44.812 -19.032 -23.563  0.00  0.00    +0.000 A 
ATOM     13  C   UNL     1     -43.683 -19.867 -23.353  0.00  0.00    +0.000 A 
ATOM     14  N   UNL     1     -43.166 -20.051 -22.100  0.00  0.00    +0.000 NA
ATOM     15  C   UNL     1     -43.753 -19.411 -21.059  0.00  0.00    +0.000 A 
ENDBRANCH   1  12
BRANCH   3  16
ATOM     16  C   UNL     1     -44.425 -16.496 -25.414  0.00  0.00    +0.000 A 
ATOM     17  C   UNL     1     -45.383 -15.495 -25.181  0.00  0.00    +0.000 A 
ATOM     18  C   UNL     1     -44.981 -14.207 -24.824  0.00  0.00    +0.000 A 
ATOM     19  C   UNL     1     -43.619 -13.897 -24.733  0.00  0.00    +0.000 A 
ATOM     20  O   UNL     1     -43.239 -12.592 -24.411  0.00  0.00    +0.000 OA
ATOM     21  C   UNL     1     -44.186 -11.521 -24.454  0.00  0.00    +0.000 C 
ATOM     22  C   UNL     1     -45.541 -11.991 -23.918  0.00  0.00    +0.000 C 
ATOM     23  O   UNL     1     -45.926 -13.214 -24.550  0.00  0.00    +0.000 OA
ATOM     24  C   UNL     1     -42.659 -14.883 -24.967  0.00  0.00    +0.000 A 
ATOM     25  C   UNL     1     -43.058 -16.180 -25.311  0.00  0.00    +0.000 A 
ATOM     26 BR   UNL     1     -41.710 -17.497 -25.630  0.00  0.00    +0.000 Br
ENDBRANCH   3  16
TORSDOF 2
ENDMDL
MODEL 2
REMARK VINA RESULT:      -6.2     11.687     14.980
REMARK  Name = ZINC000023755315 ZINC23755315 CSC028219200 MCULE-8163591876 MolPort-009-162-197 PubChem-31343882
REMARK  2 active torsions:
REMARK  status: ('A' for Active; 'I' for Inactive)
REMARK    1  A    between atoms: C_1  and  C_12
REMARK    2  A    between atoms: N_3  and  C_16
REMARK                            x       y       z     vdW  Elec       q    Type
REMARK                         _______ _______ _______ _____ _____    ______ ____
ROOT
ATOM      1  C   UNL     1     -46.441  -6.553 -31.737  0.00  0.00    +0.000 C 
ATOM      2  O   UNL     1     -47.192  -7.505 -32.078  0.00  0.00    +0.000 OA
ATOM      3  N   UNL     1     -45.394  -6.151 -32.632  0.00  0.00    +0.000 N 
ATOM      4  H   UNL     1     -44.949  -6.861 -33.149  0.00  0.00    +0.000 HD
ENDROOT
BRANCH   1  12
ATOM      5  C   UNL     1     -47.752  -3.107 -26.215  0.00  0.00    +0.000 C 
ATOM      6  N   UNL     1     -47.120  -4.320 -26.700  0.00  0.00    +0.000 N 
ATOM      7  N   UNL     1     -46.521  -5.217 -25.923  0.00  0.00    +0.000 NA
ATOM      8  C   UNL     1     -46.051  -6.207 -26.724  0.00  0.00    +0.000 A 
ATOM      9  C   UNL     1     -45.313  -7.403 -26.234  0.00  0.00    +0.000 C 
ATOM     10  C   UNL     1     -46.370  -5.915 -28.033  0.00  0.00    +0.000 A 
ATOM     11  C   UNL     1     -46.144  -6.560 -29.241  0.00  0.00    +0.000 A 
ATOM     12  C   UNL     1     -46.621  -5.927 -30.410  0.00  0.00    +0.000 A 
ATOM     13  C   UNL     1     -47.321  -4.697 -30.297  0.00  0.00    +0.000 A 
ATOM     14  N   UNL     1     -47.517  -4.108 -29.077  0.00  0.00    +0.000 NA
ATOM     15  C   UNL     1     -47.033  -4.731 -27.974  0.00  0.00    +0.000 A 
ENDBRANCH   1  12
BRANCH   3  16
ATOM     16  C   UNL     1     -44.937  -4.807 -32.843  0.00  0.00    +0.000 A 
ATOM     17  C   UNL     1     -43.695  -4.383 -32.342  0.00  0.00    +0.000 A 
ATOM     18  C   UNL     1     -43.272  -3.067 -32.535  0.00  0.00    +0.000 A 
ATOM     19  C   UNL     1     -44.102  -2.153 -33.194  0.00  0.00    +0.000 A 
ATOM     20  O   UNL     1     -43.675  -0.831 -33.342  0.00  0.00    +0.000 OA
ATOM     21  C   UNL     1     -42.560  -0.333 -32.598  0.00  0.00    +0.000 C 
ATOM     22  C   UNL     1     -41.466  -1.400 -32.509  0.00  0.00    +0.000 C 
ATOM     23  O   UNL     1     -42.021  -2.644 -32.077  0.00  0.00    +0.000 OA
ATOM     24  C   UNL     1     -45.341  -2.563 -33.691  0.00  0.00    +0.000 A 
ATOM     25  C   UNL     1     -45.762  -3.886 -33.514  0.00  0.00    +0.000 A 
ATOM     26 BR   UNL     1     -47.468  -4.403 -34.204  0.00  0.00    +0.000 Br
ENDBRANCH   3  16
TORSDOF 2
ENDMDL
MODEL 3
REMARK VINA RESULT:      -5.8     11.363     14.522
REMARK  Name = ZINC000023755315 ZINC23755315 CSC028219200 MCULE-8163591876 MolPort-009-162-197 PubChem-31343882
REMARK  2 active torsions:
REMARK  status: ('A' for Active; 'I' for Inactive)
REMARK    1  A    between atoms: C_1  and  C_12
REMARK    2  A    between atoms: N_3  and  C_16
REMARK                            x       y       z     vdW  Elec       q    Type
REMARK                         _______ _______ _______ _____ _____    ______ ____
ROOT
ATOM      1  C   UNL     1     -46.301  -6.510 -31.556  0.00  0.00    +0.000 C 
ATOM      2  O   UNL     1     -47.219  -7.191 -32.084  0.00  0.00    +0.000 OA
ATOM      3  N   UNL     1     -45.051  -6.386 -32.251  0.00  0.00    +0.000 N 
ATOM      4  H   UNL     1     -44.741  -7.172 -32.757  0.00  0.00    +0.000 HD
ENDROOT
BRANCH   1  12
ATOM      5  C   UNL     1     -47.755  -3.188 -25.993  0.00  0.00    +0.000 C 
ATOM      6  N   UNL     1     -47.116  -4.394 -26.489  0.00  0.00    +0.000 N 
ATOM      7  N   UNL     1     -46.548  -5.314 -25.716  0.00  0.00    +0.000 NA
ATOM      8  C   UNL     1     -46.061  -6.288 -26.526  0.00  0.00    +0.000 A 
ATOM      9  C   UNL     1     -45.346  -7.501 -26.044  0.00  0.00    +0.000 C 
ATOM     10  C   UNL     1     -46.338  -5.961 -27.837  0.00  0.00    +0.000 A 
ATOM     11  C   UNL     1     -46.080  -6.579 -29.054  0.00  0.00    +0.000 A 
ATOM     12  C   UNL     1     -46.517  -5.915 -30.220  0.00  0.00    +0.000 A 
ATOM     13  C   UNL     1     -47.211  -4.682 -30.098  0.00  0.00    +0.000 A 
ATOM     14  N   UNL     1     -47.440  -4.121 -28.871  0.00  0.00    +0.000 NA
ATOM     15  C   UNL     1     -46.995  -4.774 -27.769  0.00  0.00    +0.000 A 
ENDBRANCH   1  12
BRANCH   3  16
ATOM     16  C   UNL     1     -44.214  -5.222 -32.275  0.00  0.00    +0.000 A 
ATOM     17  C   UNL     1     -44.693  -4.002 -32.780  0.00  0.00    +0.000 A 
ATOM     18  C   UNL     1     -43.861  -2.882 -32.818  0.00  0.00    +0.000 A 
ATOM     19  C   UNL     1     -42.532  -2.980 -32.388  0.00  0.00    +0.000 A 
ATOM     20  O   UNL     1     -41.706  -1.856 -32.470  0.00  0.00    +0.000 OA
ATOM     21  C   UNL     1     -42.099  -0.713 -33.235  0.00  0.00    +0.000 C 
ATOM     22  C   UNL     1     -43.597  -0.450 -33.063  0.00  0.00    +0.000 C 
ATOM     23  O   UNL     1     -44.338  -1.652 -33.280  0.00  0.00    +0.000 OA
ATOM     24  C   UNL     1     -42.045  -4.189 -31.889  0.00  0.00    +0.000 A 
ATOM     25  C   UNL     1     -42.880  -5.311 -31.835  0.00  0.00    +0.000 A 
ATOM     26 BR   UNL     1     -42.170  -6.949 -31.151  0.00  0.00    +0.000 Br
ENDBRANCH   3  16
TORSDOF 2
ENDMDL
