MODEL 1
REMARK VINA RESULT:      -6.8      0.000      0.000
REMARK  Name = ZINC000230157758 PubChem-100900615
REMARK  9 active torsions:
REMARK  status: ('A' for Active; 'I' for Inactive)
REMARK    1  A    between atoms: N_13  and  C_20
REMARK    2  A    between atoms: C_20  and  C_21
REMARK    3  A    between atoms: C_21  and  O_22
REMARK    4  A    between atoms: C_21  and  C_24
REMARK    5  A    between atoms: C_24  and  O_25
REMARK    6  A    between atoms: C_24  and  C_27
REMARK    7  A    between atoms: C_27  and  O_28
REMARK    8  A    between atoms: C_27  and  C_30
REMARK    9  A    between atoms: C_30  and  O_31
REMARK                            x       y       z     vdW  Elec       q    Type
REMARK                         _______ _______ _______ _____ _____    ______ ____
ROOT
ATOM      1  C   UNL     1     -47.071  -3.855 -22.950  0.00  0.00    +0.000 C 
ATOM      2  C   UNL     1     -47.061  -4.138 -24.414  0.00  0.00    +0.000 A 
ATOM      3  C   UNL     1     -46.781  -5.440 -24.844  0.00  0.00    +0.000 A 
ATOM      4  C   UNL     1     -46.762  -5.740 -26.207  0.00  0.00    +0.000 A 
ATOM      5  C   UNL     1     -46.485  -7.033 -26.645  0.00  0.00    +0.000 A 
ATOM      6  C   UNL     1     -46.471  -7.312 -28.017  0.00  0.00    +0.000 A 
ATOM      7  C   UNL     1     -46.740  -6.280 -28.941  0.00  0.00    +0.000 A 
ATOM      8  N   UNL     1     -47.005  -5.022 -28.482  0.00  0.00    +0.000 NA
ATOM      9  C   UNL     1     -47.024  -4.729 -27.155  0.00  0.00    +0.000 A 
ATOM     10  C   UNL     1     -47.302  -3.430 -26.726  0.00  0.00    +0.000 A 
ATOM     11  C   UNL     1     -47.322  -3.128 -25.360  0.00  0.00    +0.000 A 
ATOM     12  C   UNL     1     -47.624  -1.728 -24.942  0.00  0.00    +0.000 C 
ATOM     13  N   UNL     1     -46.731  -6.546 -30.282  0.00  0.00    +0.000 N 
ATOM     14  C   UNL     1     -46.455  -7.810 -30.730  0.00  0.00    +0.000 A 
ATOM     15  O   UNL     1     -46.437  -8.065 -31.965  0.00  0.00    +0.000 OA
ATOM     16  N   UNL     1     -46.195  -8.809 -29.846  0.00  0.00    +0.000 N 
ATOM     17  C   UNL     1     -46.197  -8.592 -28.507  0.00  0.00    +0.000 A 
ATOM     18  O   UNL     1     -45.952  -9.547 -27.723  0.00  0.00    +0.000 OA
ATOM     19  H   UNL     1     -46.000  -9.712 -30.186  0.00  0.00    +0.000 HD
ENDROOT
BRANCH  13  20
ATOM     20  C   UNL     1     -47.022  -5.480 -31.243  0.00  0.00    +0.000 C 
BRANCH  20  21
ATOM     21  C   UNL     1     -45.731  -4.856 -31.760  0.00  0.00    +0.000 C 
BRANCH  21  22
ATOM     22  O   UNL     1     -45.634  -5.071 -33.137  0.00  0.00    +0.000 OA
ATOM     23  H   UNL     1     -46.517  -5.027 -33.534  0.00  0.00    +0.000 HD
ENDBRANCH  21  22
BRANCH  21  24
ATOM     24  C   UNL     1     -45.697  -3.353 -31.458  0.00  0.00    +0.000 C 
BRANCH  24  25
ATOM     25  O   UNL     1     -46.981  -2.887 -31.167  0.00  0.00    +0.000 OA
ATOM     26  H   UNL     1     -47.094  -1.998 -31.539  0.00  0.00    +0.000 HD
ENDBRANCH  24  25
BRANCH  24  27
ATOM     27  C   UNL     1     -45.092  -2.513 -32.592  0.00  0.00    +0.000 C 
BRANCH  27  28
ATOM     28  O   UNL     1     -46.006  -2.370 -33.635  0.00  0.00    +0.000 OA
ATOM     29  H   UNL     1     -46.906  -2.325 -33.273  0.00  0.00    +0.000 HD
ENDBRANCH  27  28
BRANCH  27  30
ATOM     30  C   UNL     1     -44.613  -1.139 -32.135  0.00  0.00    +0.000 C 
BRANCH  30  31
ATOM     31  O   UNL     1     -45.147  -0.835 -30.883  0.00  0.00    +0.000 OA
ATOM     32  H   UNL     1     -46.116  -0.861 -30.929  0.00  0.00    +0.000 HD
ENDBRANCH  30  31
ENDBRANCH  27  30
ENDBRANCH  24  27
ENDBRANCH  21  24
ENDBRANCH  20  21
ENDBRANCH  13  20
TORSDOF 9
ENDMDL
MODEL 2
REMARK VINA RESULT:      -5.9      9.552     12.474
REMARK  Name = ZINC000230157758 PubChem-100900615
REMARK  9 active torsions:
REMARK  status: ('A' for Active; 'I' for Inactive)
REMARK    1  A    between atoms: N_13  and  C_20
REMARK    2  A    between atoms: C_20  and  C_21
REMARK    3  A    between atoms: C_21  and  O_22
REMARK    4  A    between atoms: C_21  and  C_24
REMARK    5  A    between atoms: C_24  and  O_25
REMARK    6  A    between atoms: C_24  and  C_27
REMARK    7  A    between atoms: C_27  and  O_28
REMARK    8  A    between atoms: C_27  and  C_30
REMARK    9  A    between atoms: C_30  and  O_31
REMARK                            x       y       z     vdW  Elec       q    Type
REMARK                         _______ _______ _______ _____ _____    ______ ____
ROOT
ATOM      1  C   UNL     1     -46.252 -13.993 -17.509  0.00  0.00    +0.000 C 
ATOM      2  C   UNL     1     -46.129 -14.474 -18.916  0.00  0.00    +0.000 A 
ATOM      3  C   UNL     1     -45.559 -15.730 -19.149  0.00  0.00    +0.000 A 
ATOM      4  C   UNL     1     -45.428 -16.210 -20.453  0.00  0.00    +0.000 A 
ATOM      5  C   UNL     1     -44.862 -17.460 -20.696  0.00  0.00    +0.000 A 
ATOM      6  C   UNL     1     -44.739 -17.923 -22.012  0.00  0.00    +0.000 A 
ATOM      7  C   UNL     1     -45.193 -17.117 -23.078  0.00  0.00    +0.000 A 
ATOM      8  N   UNL     1     -45.741 -15.896 -22.810  0.00  0.00    +0.000 NA
ATOM      9  C   UNL     1     -45.869 -15.428 -21.540  0.00  0.00    +0.000 A 
ATOM     10  C   UNL     1     -46.437 -14.174 -21.308  0.00  0.00    +0.000 A 
ATOM     11  C   UNL     1     -46.570 -13.691 -20.001  0.00  0.00    +0.000 A 
ATOM     12  C   UNL     1     -47.182 -12.347 -19.795  0.00  0.00    +0.000 C 
ATOM     13  N   UNL     1     -45.080 -17.564 -24.365  0.00  0.00    +0.000 N 
ATOM     14  C   UNL     1     -44.521 -18.787 -24.621  0.00  0.00    +0.000 A 
ATOM     15  O   UNL     1     -44.405 -19.205 -25.806  0.00  0.00    +0.000 OA
ATOM     16  N   UNL     1     -44.082 -19.568 -23.600  0.00  0.00    +0.000 N 
ATOM     17  C   UNL     1     -44.178 -19.168 -22.307  0.00  0.00    +0.000 A 
ATOM     18  O   UNL     1     -43.759 -19.924 -21.390  0.00  0.00    +0.000 OA
ATOM     19  H   UNL     1     -43.683 -20.445 -23.802  0.00  0.00    +0.000 HD
ENDROOT
BRANCH  13  20
ATOM     20  C   UNL     1     -45.561 -16.736 -25.474  0.00  0.00    +0.000 C 
BRANCH  20  21
ATOM     21  C   UNL     1     -44.420 -15.921 -26.070  0.00  0.00    +0.000 C 
BRANCH  21  22
ATOM     22  O   UNL     1     -44.330 -16.186 -27.438  0.00  0.00    +0.000 OA
ATOM     23  H   UNL     1     -44.983 -16.859 -27.681  0.00  0.00    +0.000 HD
ENDBRANCH  21  22
BRANCH  21  24
ATOM     24  C   UNL     1     -44.647 -14.422 -25.838  0.00  0.00    +0.000 C 
BRANCH  24  25
ATOM     25  O   UNL     1     -44.193 -14.052 -24.570  0.00  0.00    +0.000 OA
ATOM     26  H   UNL     1     -44.239 -13.088 -24.479  0.00  0.00    +0.000 HD
ENDBRANCH  24  25
BRANCH  24  27
ATOM     27  C   UNL     1     -46.111 -13.989 -26.004  0.00  0.00    +0.000 C 
BRANCH  27  28
ATOM     28  O   UNL     1     -46.610 -13.486 -24.803  0.00  0.00    +0.000 OA
ATOM     29  H   UNL     1     -47.036 -12.629 -24.964  0.00  0.00    +0.000 HD
ENDBRANCH  27  28
BRANCH  27  30
ATOM     30  C   UNL     1     -46.315 -12.966 -27.116  0.00  0.00    +0.000 C 
BRANCH  30  31
ATOM     31  O   UNL     1     -47.676 -12.776 -27.352  0.00  0.00    +0.000 OA
ATOM     32  H   UNL     1     -48.104 -13.635 -27.491  0.00  0.00    +0.000 HD
ENDBRANCH  30  31
ENDBRANCH  27  30
ENDBRANCH  24  27
ENDBRANCH  21  24
ENDBRANCH  20  21
ENDBRANCH  13  20
TORSDOF 9
ENDMDL
MODEL 3
REMARK VINA RESULT:      -5.8     11.617     15.204
REMARK  Name = ZINC000230157758 PubChem-100900615
REMARK  9 active torsions:
REMARK  status: ('A' for Active; 'I' for Inactive)
REMARK    1  A    between atoms: N_13  and  C_20
REMARK    2  A    between atoms: C_20  and  C_21
REMARK    3  A    between atoms: C_21  and  O_22
REMARK    4  A    between atoms: C_21  and  C_24
REMARK    5  A    between atoms: C_24  and  O_25
REMARK    6  A    between atoms: C_24  and  C_27
REMARK    7  A    between atoms: C_27  and  O_28
REMARK    8  A    between atoms: C_27  and  C_30
REMARK    9  A    between atoms: C_30  and  O_31
REMARK                            x       y       z     vdW  Elec       q    Type
REMARK                         _______ _______ _______ _____ _____    ______ ____
ROOT
ATOM      1  C   UNL     1     -46.984 -13.128 -19.742  0.00  0.00    +0.000 C 
ATOM      2  C   UNL     1     -46.515 -14.338 -20.477  0.00  0.00    +0.000 A 
ATOM      3  C   UNL     1     -46.275 -14.239 -21.851  0.00  0.00    +0.000 A 
ATOM      4  C   UNL     1     -45.836 -15.352 -22.570  0.00  0.00    +0.000 A 
ATOM      5  C   UNL     1     -45.594 -15.263 -23.938  0.00  0.00    +0.000 A 
ATOM      6  C   UNL     1     -45.154 -16.392 -24.641  0.00  0.00    +0.000 A 
ATOM      7  C   UNL     1     -44.960 -17.608 -23.952  0.00  0.00    +0.000 A 
ATOM      8  N   UNL     1     -45.208 -17.666 -22.611  0.00  0.00    +0.000 NA
ATOM      9  C   UNL     1     -45.635 -16.582 -21.911  0.00  0.00    +0.000 A 
ATOM     10  C   UNL     1     -45.876 -16.682 -20.538  0.00  0.00    +0.000 A 
ATOM     11  C   UNL     1     -46.315 -15.567 -19.817  0.00  0.00    +0.000 A 
ATOM     12  C   UNL     1     -46.561 -15.714 -18.353  0.00  0.00    +0.000 C 
ATOM     13  N   UNL     1     -44.528 -18.715 -24.630  0.00  0.00    +0.000 N 
ATOM     14  C   UNL     1     -44.291 -18.645 -25.977  0.00  0.00    +0.000 A 
ATOM     15  O   UNL     1     -43.899 -19.662 -26.613  0.00  0.00    +0.000 OA
ATOM     16  N   UNL     1     -44.476 -17.478 -26.647  0.00  0.00    +0.000 N 
ATOM     17  C   UNL     1     -44.899 -16.355 -26.014  0.00  0.00    +0.000 A 
ATOM     18  O   UNL     1     -45.056 -15.292 -26.674  0.00  0.00    +0.000 OA
ATOM     19  H   UNL     1     -44.299 -17.446 -27.614  0.00  0.00    +0.000 HD
ENDROOT
BRANCH  13  20
ATOM     20  C   UNL     1     -44.313 -19.975 -23.916  0.00  0.00    +0.000 C 
BRANCH  20  21
ATOM     21  C   UNL     1     -43.000 -19.938 -23.145  0.00  0.00    +0.000 C 
BRANCH  21  22
ATOM     22  O   UNL     1     -43.263 -20.048 -21.778  0.00  0.00    +0.000 OA
ATOM     23  H   UNL     1     -42.599 -19.548 -21.279  0.00  0.00    +0.000 HD
ENDBRANCH  21  22
BRANCH  21  24
ATOM     24  C   UNL     1     -42.075 -21.075 -23.595  0.00  0.00    +0.000 C 
BRANCH  24  25
ATOM     25  O   UNL     1     -42.512 -22.293 -23.070  0.00  0.00    +0.000 OA
ATOM     26  H   UNL     1     -43.112 -22.721 -23.700  0.00  0.00    +0.000 HD
ENDBRANCH  24  25
BRANCH  24  27
ATOM     27  C   UNL     1     -40.602 -20.854 -23.220  0.00  0.00    +0.000 C 
BRANCH  27  28
ATOM     28  O   UNL     1     -40.458 -20.774 -21.835  0.00  0.00    +0.000 OA
ATOM     29  H   UNL     1     -39.532 -20.588 -21.616  0.00  0.00    +0.000 HD
ENDBRANCH  27  28
BRANCH  27  30
ATOM     30  C   UNL     1     -39.671 -21.928 -23.773  0.00  0.00    +0.000 C 
BRANCH  30  31
ATOM     31  O   UNL     1     -40.284 -22.597 -24.833  0.00  0.00    +0.000 OA
ATOM     32  H   UNL     1     -39.618 -22.828 -25.499  0.00  0.00    +0.000 HD
ENDBRANCH  30  31
ENDBRANCH  27  30
ENDBRANCH  24  27
ENDBRANCH  21  24
ENDBRANCH  20  21
ENDBRANCH  13  20
TORSDOF 9
ENDMDL
