MODEL 1
REMARK VINA RESULT:      -7.6      0.000      0.000
REMARK  Name = ZINC000032678714 ZINC32678714 CSC028068244 MCULE-2237337451 MolPort-005-701-896 PubChem-39911757
REMARK  4 active torsions:
REMARK  status: ('A' for Active; 'I' for Inactive)
REMARK    1  A    between atoms: C_1  and  N_19
REMARK    2  A    between atoms: C_5  and  C_7
REMARK    3  A    between atoms: C_17  and  C_25
REMARK    4  A    between atoms: C_21  and  C_30
REMARK                            x       y       z     vdW  Elec       q    Type
REMARK                         _______ _______ _______ _____ _____    ______ ____
ROOT
ATOM      1  C   UNL     1     -47.333  -5.128 -30.983  0.00  0.00    +0.000 A 
ATOM      2  C   UNL     1     -46.860  -6.448 -31.012  0.00  0.00    +0.000 A 
ATOM      3  C   UNL     1     -46.476  -7.083 -29.829  0.00  0.00    +0.000 A 
ATOM      4  C   UNL     1     -46.573  -6.408 -28.610  0.00  0.00    +0.000 A 
ATOM      5  C   UNL     1     -47.056  -5.093 -28.567  0.00  0.00    +0.000 A 
ATOM      6  C   UNL     1     -47.440  -4.461 -29.758  0.00  0.00    +0.000 A 
ENDROOT
BRANCH   5   7
ATOM      7  C   UNL     1     -47.161  -4.382 -27.282  0.00  0.00    +0.000 A 
ATOM      8  N   UNL     1     -47.226  -3.025 -27.194  0.00  0.00    +0.000 NA
ATOM      9  C   UNL     1     -47.309  -2.823 -25.872  0.00  0.00    +0.000 A 
ATOM     10  C   UNL     1     -47.402  -1.606 -25.202  0.00  0.00    +0.000 A 
ATOM     11  C   UNL     1     -47.478  -1.645 -23.797  0.00  0.00    +0.000 A 
ATOM     12  C   UNL     1     -47.462  -2.880 -23.111  0.00  0.00    +0.000 A 
ATOM     13  C   UNL     1     -47.368  -4.091 -23.823  0.00  0.00    +0.000 A 
ATOM     14  C   UNL     1     -47.294  -4.013 -25.211  0.00  0.00    +0.000 A 
ATOM     15  N   UNL     1     -47.199  -5.026 -26.083  0.00  0.00    +0.000 N 
ATOM     16  H   UNL     1     -47.166  -5.993 -25.903  0.00  0.00    +0.000 HD
ENDBRANCH   5   7
BRANCH   1  19
ATOM     17  C   UNL     1     -46.924  -4.146 -33.304  0.00  0.00    +0.000 C 
ATOM     18  O   UNL     1     -47.421  -4.201 -34.458  0.00  0.00    +0.000 OA
ATOM     19  N   UNL     1     -47.756  -4.457 -32.177  0.00  0.00    +0.000 N 
ATOM     20  H   UNL     1     -48.700  -4.186 -32.230  0.00  0.00    +0.000 HD
BRANCH  17  25
ATOM     21  C   UNL     1     -43.291  -3.763 -33.029  0.00  0.00    +0.000 A 
ATOM     22  C   UNL     1     -43.805  -2.513 -32.702  0.00  0.00    +0.000 A 
ATOM     23  C   UNL     1     -43.023  -1.307 -32.311  0.00  0.00    +0.000 C 
ATOM     24  N   UNL     1     -45.151  -2.504 -32.768  0.00  0.00    +0.000 N 
ATOM     25  C   UNL     1     -45.512  -3.744 -33.153  0.00  0.00    +0.000 A 
ATOM     26  C   UNL     1     -44.396  -4.552 -33.312  0.00  0.00    +0.000 A 
ATOM     27  C   UNL     1     -44.392  -6.015 -33.611  0.00  0.00    +0.000 C 
ATOM     28  H   UNL     1     -45.748  -1.746 -32.575  0.00  0.00    +0.000 HD
BRANCH  21  30
ATOM     29  C   UNL     1     -41.036  -4.060 -34.277  0.00  0.00    +0.000 C 
ATOM     30  C   UNL     1     -41.872  -4.191 -33.052  0.00  0.00    +0.000 C 
ATOM     31  O   UNL     1     -41.344  -4.682 -32.020  0.00  0.00    +0.000 OA
ENDBRANCH  21  30
ENDBRANCH  17  25
ENDBRANCH   1  19
TORSDOF 4
ENDMDL
MODEL 2
REMARK VINA RESULT:      -7.2      1.875      2.711
REMARK  Name = ZINC000032678714 ZINC32678714 CSC028068244 MCULE-2237337451 MolPort-005-701-896 PubChem-39911757
REMARK  4 active torsions:
REMARK  status: ('A' for Active; 'I' for Inactive)
REMARK    1  A    between atoms: C_1  and  N_19
REMARK    2  A    between atoms: C_5  and  C_7
REMARK    3  A    between atoms: C_17  and  C_25
REMARK    4  A    between atoms: C_21  and  C_30
REMARK                            x       y       z     vdW  Elec       q    Type
REMARK                         _______ _______ _______ _____ _____    ______ ____
ROOT
ATOM      1  C   UNL     1     -46.639  -7.820 -31.411  0.00  0.00    +0.000 A 
ATOM      2  C   UNL     1     -46.107  -9.079 -31.094  0.00  0.00    +0.000 A 
ATOM      3  C   UNL     1     -45.764  -9.385 -29.774  0.00  0.00    +0.000 A 
ATOM      4  C   UNL     1     -45.961  -8.441 -28.765  0.00  0.00    +0.000 A 
ATOM      5  C   UNL     1     -46.505  -7.185 -29.067  0.00  0.00    +0.000 A 
ATOM      6  C   UNL     1     -46.847  -6.884 -30.393  0.00  0.00    +0.000 A 
ENDROOT
BRANCH   5   7
ATOM      7  C   UNL     1     -46.717  -6.191 -28.001  0.00  0.00    +0.000 A 
ATOM      8  N   UNL     1     -46.947  -4.874 -28.258  0.00  0.00    +0.000 NA
ATOM      9  C   UNL     1     -47.076  -4.356 -27.029  0.00  0.00    +0.000 A 
ATOM     10  C   UNL     1     -47.325  -3.030 -26.687  0.00  0.00    +0.000 A 
ATOM     11  C   UNL     1     -47.420  -2.722 -25.316  0.00  0.00    +0.000 A 
ATOM     12  C   UNL     1     -47.266  -3.733 -24.341  0.00  0.00    +0.000 A 
ATOM     13  C   UNL     1     -47.014  -5.063 -24.726  0.00  0.00    +0.000 A 
ATOM     14  C   UNL     1     -46.927  -5.330 -26.089  0.00  0.00    +0.000 A 
ATOM     15  N   UNL     1     -46.697  -6.512 -26.679  0.00  0.00    +0.000 N 
ATOM     16  H   UNL     1     -46.550  -7.390 -26.261  0.00  0.00    +0.000 HD
ENDBRANCH   5   7
BRANCH   1  19
ATOM     17  C   UNL     1     -46.254  -6.693 -33.668  0.00  0.00    +0.000 C 
ATOM     18  O   UNL     1     -46.283  -6.986 -34.892  0.00  0.00    +0.000 OA
ATOM     19  N   UNL     1     -47.022  -7.485 -32.751  0.00  0.00    +0.000 N 
ATOM     20  H   UNL     1     -47.887  -7.828 -33.070  0.00  0.00    +0.000 HD
BRANCH  17  25
ATOM     21  C   UNL     1     -44.760  -3.476 -32.757  0.00  0.00    +0.000 A 
ATOM     22  C   UNL     1     -43.744  -4.405 -32.565  0.00  0.00    +0.000 A 
ATOM     23  C   UNL     1     -42.355  -4.121 -32.107  0.00  0.00    +0.000 C 
ATOM     24  N   UNL     1     -44.159  -5.653 -32.860  0.00  0.00    +0.000 N 
ATOM     25  C   UNL     1     -45.450  -5.536 -33.229  0.00  0.00    +0.000 A 
ATOM     26  C   UNL     1     -45.853  -4.210 -33.190  0.00  0.00    +0.000 A 
ATOM     27  C   UNL     1     -47.168  -3.666 -33.642  0.00  0.00    +0.000 C 
ATOM     28  H   UNL     1     -43.628  -6.481 -32.815  0.00  0.00    +0.000 HD
BRANCH  21  30
ATOM     29  C   UNL     1     -45.109  -1.365 -31.288  0.00  0.00    +0.000 C 
ATOM     30  C   UNL     1     -44.702  -2.007 -32.569  0.00  0.00    +0.000 C 
ATOM     31  O   UNL     1     -44.305  -1.265 -33.506  0.00  0.00    +0.000 OA
ENDBRANCH  21  30
ENDBRANCH  17  25
ENDBRANCH   1  19
TORSDOF 4
ENDMDL
MODEL 3
REMARK VINA RESULT:      -6.9      4.319      7.439
REMARK  Name = ZINC000032678714 ZINC32678714 CSC028068244 MCULE-2237337451 MolPort-005-701-896 PubChem-39911757
REMARK  4 active torsions:
REMARK  status: ('A' for Active; 'I' for Inactive)
REMARK    1  A    between atoms: C_1  and  N_19
REMARK    2  A    between atoms: C_5  and  C_7
REMARK    3  A    between atoms: C_17  and  C_25
REMARK    4  A    between atoms: C_21  and  C_30
REMARK                            x       y       z     vdW  Elec       q    Type
REMARK                         _______ _______ _______ _____ _____    ______ ____
ROOT
ATOM      1  C   UNL     1     -47.418  -7.589 -30.053  0.00  0.00    +0.000 A 
ATOM      2  C   UNL     1     -47.597  -8.506 -31.100  0.00  0.00    +0.000 A 
ATOM      3  C   UNL     1     -47.237  -8.162 -32.405  0.00  0.00    +0.000 A 
ATOM      4  C   UNL     1     -46.687  -6.906 -32.670  0.00  0.00    +0.000 A 
ATOM      5  C   UNL     1     -46.491  -5.986 -31.631  0.00  0.00    +0.000 A 
ATOM      6  C   UNL     1     -46.855  -6.338 -30.323  0.00  0.00    +0.000 A 
ENDROOT
BRANCH   5   7
ATOM      7  C   UNL     1     -45.908  -4.663 -31.909  0.00  0.00    +0.000 A 
ATOM      8  N   UNL     1     -45.288  -4.365 -33.084  0.00  0.00    +0.000 NA
ATOM      9  C   UNL     1     -44.921  -3.089 -32.903  0.00  0.00    +0.000 A 
ATOM     10  C   UNL     1     -44.241  -2.264 -33.796  0.00  0.00    +0.000 A 
ATOM     11  C   UNL     1     -43.964  -0.949 -33.379  0.00  0.00    +0.000 A 
ATOM     12  C   UNL     1     -44.368  -0.501 -32.101  0.00  0.00    +0.000 A 
ATOM     13  C   UNL     1     -45.053  -1.363 -31.225  0.00  0.00    +0.000 A 
ATOM     14  C   UNL     1     -45.310  -2.656 -31.672  0.00  0.00    +0.000 A 
ATOM     15  N   UNL     1     -45.942  -3.639 -31.014  0.00  0.00    +0.000 N 
ATOM     16  H   UNL     1     -46.332  -3.623 -30.111  0.00  0.00    +0.000 HD
ENDBRANCH   5   7
BRANCH   1  19
ATOM     17  C   UNL     1     -46.978  -8.744 -27.820  0.00  0.00    +0.000 C 
ATOM     18  O   UNL     1     -46.946  -8.459 -26.595  0.00  0.00    +0.000 OA
ATOM     19  N   UNL     1     -47.756  -7.921 -28.700  0.00  0.00    +0.000 N 
ATOM     20  H   UNL     1     -48.596  -7.553 -28.344  0.00  0.00    +0.000 HD
BRANCH  17  25
ATOM     21  C   UNL     1     -44.667 -11.254 -29.152  0.00  0.00    +0.000 A 
ATOM     22  C   UNL     1     -45.836 -11.956 -28.884  0.00  0.00    +0.000 A 
ATOM     23  C   UNL     1     -46.073 -13.408 -29.118  0.00  0.00    +0.000 C 
ATOM     24  N   UNL     1     -46.787 -11.148 -28.376  0.00  0.00    +0.000 N 
ATOM     25  C   UNL     1     -46.230  -9.923 -28.299  0.00  0.00    +0.000 A 
ATOM     26  C   UNL     1     -44.930  -9.945 -28.778  0.00  0.00    +0.000 A 
ATOM     27  C   UNL     1     -44.031  -8.768 -28.967  0.00  0.00    +0.000 C 
ATOM     28  H   UNL     1     -47.702 -11.401 -28.114  0.00  0.00    +0.000 HD
BRANCH  21  30
ATOM     29  C   UNL     1     -43.094 -11.616 -31.185  0.00  0.00    +0.000 C 
ATOM     30  C   UNL     1     -43.405 -11.768 -29.736  0.00  0.00    +0.000 C 
ATOM     31  O   UNL     1     -42.563 -12.354 -29.005  0.00  0.00    +0.000 OA
ENDBRANCH  21  30
ENDBRANCH  17  25
ENDBRANCH   1  19
TORSDOF 4
ENDMDL
