MODEL 1
REMARK VINA RESULT:      -6.4      0.000      0.000
REMARK  Name = ZINC000030726767 ZINC30726767 PubChem-37870901
REMARK  7 active torsions:
REMARK  status: ('A' for Active; 'I' for Inactive)
REMARK    1  A    between atoms: N_1  and  C_10
REMARK    2  A    between atoms: C_2  and  C_18
REMARK    3  A    between atoms: C_5  and  O_15
REMARK    4  A    between atoms: O_15  and  C_17
REMARK    5  A    between atoms: C_18  and  C_19
REMARK    6  A    between atoms: C_19  and  C_20
REMARK    7  A    between atoms: C_29  and  O_32
REMARK                            x       y       z     vdW  Elec       q    Type
REMARK                         _______ _______ _______ _____ _____    ______ ____
ROOT
ATOM      1  N   UNL     1     -42.825 -16.395 -26.247  0.00  0.00    +0.000 N 
ATOM      2  C   UNL     1     -42.786 -17.825 -26.331  0.00  0.00    +0.000 C 
ATOM      3  O   UNL     1     -41.693 -18.418 -26.139  0.00  0.00    +0.000 OA
ATOM      4  H   UNL     1     -42.024 -15.958 -25.878  0.00  0.00    +0.000 HD
ENDROOT
BRANCH   1  10
ATOM      5  C   UNL     1     -44.767 -15.015 -25.644  0.00  0.00    +0.000 A 
ATOM      6  C   UNL     1     -45.815 -14.141 -26.006  0.00  0.00    +0.000 A 
ATOM      7  C   UNL     1     -45.965 -13.799 -27.346  0.00  0.00    +0.000 A 
ATOM      8  C   UNL     1     -45.120 -14.279 -28.299  0.00  0.00    +0.000 A 
ATOM      9  C   UNL     1     -44.073 -15.139 -27.984  0.00  0.00    +0.000 A 
ATOM     10  C   UNL     1     -43.899 -15.526 -26.640  0.00  0.00    +0.000 A 
ATOM     11  O   UNL     1     -45.452 -13.808 -29.549  0.00  0.00    +0.000 OA
ATOM     12  C   UNL     1     -46.599 -12.961 -29.463  0.00  0.00    +0.000 C 
ATOM     13  C   UNL     1     -46.977 -12.909 -27.966  0.00  0.00    +0.000 C 
ATOM     14  C   UNL     1     -46.248 -11.571 -29.953  0.00  0.00    +0.000 C 
BRANCH   5  15
ATOM     15  O   UNL     1     -44.573 -15.393 -24.311  0.00  0.00    +0.000 OA
BRANCH  15  17
ATOM     16  C   UNL     1     -46.002 -15.050 -22.417  0.00  0.00    +0.000 C 
ATOM     17  C   UNL     1     -44.832 -14.521 -23.219  0.00  0.00    +0.000 C 
ENDBRANCH  15  17
ENDBRANCH   5  15
ENDBRANCH   1  10
BRANCH   2  18
ATOM     18  C   UNL     1     -44.014 -18.644 -26.556  0.00  0.00    +0.000 C 
BRANCH  18  19
ATOM     19  C   UNL     1     -43.972 -19.884 -25.680  0.00  0.00    +0.000 C 
BRANCH  19  20
ATOM     20  C   UNL     1     -44.191 -19.521 -24.239  0.00  0.00    +0.000 A 
ATOM     21  C   UNL     1     -43.237 -19.907 -23.264  0.00  0.00    +0.000 A 
ATOM     22  C   UNL     1     -43.477 -19.520 -21.937  0.00  0.00    +0.000 A 
ATOM     23  C   UNL     1     -44.621 -18.849 -21.609  0.00  0.00    +0.000 A 
ATOM     24  N   UNL     1     -45.546 -18.477 -22.526  0.00  0.00    +0.000 NA
ATOM     25  C   UNL     1     -45.343 -18.785 -23.841  0.00  0.00    +0.000 A 
ATOM     26  C   UNL     1     -46.355 -18.330 -24.838  0.00  0.00    +0.000 C 
ATOM     27  N   UNL     1     -44.695 -18.670 -20.283  0.00  0.00    +0.000 N 
ATOM     28  N   UNL     1     -43.618 -19.200 -19.718  0.00  0.00    +0.000 NA
ATOM     29  C   UNL     1     -42.845 -19.714 -20.706  0.00  0.00    +0.000 A 
ATOM     30  C   UNL     1     -45.768 -18.023 -19.549  0.00  0.00    +0.000 C 
ATOM     31  C   UNL     1     -42.074 -20.766 -23.637  0.00  0.00    +0.000 C 
BRANCH  29  32
ATOM     32  O   UNL     1     -41.612 -20.315 -20.444  0.00  0.00    +0.000 OA
ATOM     33  C   UNL     1     -41.403 -21.196 -19.353  0.00  0.00    +0.000 C 
ENDBRANCH  29  32
ENDBRANCH  19  20
ENDBRANCH  18  19
ENDBRANCH   2  18
TORSDOF 7
ENDMDL
MODEL 2
REMARK VINA RESULT:      -6.4     10.164     14.679
REMARK  Name = ZINC000030726767 ZINC30726767 PubChem-37870901
REMARK  7 active torsions:
REMARK  status: ('A' for Active; 'I' for Inactive)
REMARK    1  A    between atoms: N_1  and  C_10
REMARK    2  A    between atoms: C_2  and  C_18
REMARK    3  A    between atoms: C_5  and  O_15
REMARK    4  A    between atoms: O_15  and  C_17
REMARK    5  A    between atoms: C_18  and  C_19
REMARK    6  A    between atoms: C_19  and  C_20
REMARK    7  A    between atoms: C_29  and  O_32
REMARK                            x       y       z     vdW  Elec       q    Type
REMARK                         _______ _______ _______ _____ _____    ______ ____
ROOT
ATOM      1  N   UNL     1     -46.840  -5.727 -33.826  0.00  0.00    +0.000 N 
ATOM      2  C   UNL     1     -47.148  -4.476 -33.197  0.00  0.00    +0.000 C 
ATOM      3  O   UNL     1     -47.461  -3.492 -33.917  0.00  0.00    +0.000 OA
ATOM      4  H   UNL     1     -47.052  -5.796 -34.785  0.00  0.00    +0.000 HD
ENDROOT
BRANCH   1  10
ATOM      5  C   UNL     1     -44.884  -7.160 -33.429  0.00  0.00    +0.000 A 
ATOM      6  C   UNL     1     -44.286  -8.286 -32.821  0.00  0.00    +0.000 A 
ATOM      7  C   UNL     1     -45.074  -9.106 -32.020  0.00  0.00    +0.000 A 
ATOM      8  C   UNL     1     -46.391  -8.837 -31.807  0.00  0.00    +0.000 A 
ATOM      9  C   UNL     1     -47.016  -7.736 -32.383  0.00  0.00    +0.000 A 
ATOM     10  C   UNL     1     -46.258  -6.890 -33.218  0.00  0.00    +0.000 A 
ATOM     11  O   UNL     1     -46.968  -9.774 -30.981  0.00  0.00    +0.000 OA
ATOM     12  C   UNL     1     -46.003 -10.759 -30.608  0.00  0.00    +0.000 C 
ATOM     13  C   UNL     1     -44.680 -10.332 -31.282  0.00  0.00    +0.000 C 
ATOM     14  C   UNL     1     -45.833 -10.767 -29.103  0.00  0.00    +0.000 C 
BRANCH   5  15
ATOM     15  O   UNL     1     -44.138  -6.302 -34.246  0.00  0.00    +0.000 OA
BRANCH  15  17
ATOM     16  C   UNL     1     -42.277  -5.468 -35.505  0.00  0.00    +0.000 C 
ATOM     17  C   UNL     1     -42.866  -6.655 -34.773  0.00  0.00    +0.000 C 
ENDBRANCH  15  17
ENDBRANCH   5  15
ENDBRANCH   1  10
BRANCH   2  18
ATOM     18  C   UNL     1     -47.192  -4.320 -31.713  0.00  0.00    +0.000 C 
BRANCH  18  19
ATOM     19  C   UNL     1     -46.229  -3.227 -31.284  0.00  0.00    +0.000 C 
BRANCH  19  20
ATOM     20  C   UNL     1     -44.807  -3.651 -31.520  0.00  0.00    +0.000 A 
ATOM     21  C   UNL     1     -44.278  -4.760 -30.813  0.00  0.00    +0.000 A 
ATOM     22  C   UNL     1     -42.954  -5.130 -31.090  0.00  0.00    +0.000 A 
ATOM     23  C   UNL     1     -42.201  -4.402 -31.967  0.00  0.00    +0.000 A 
ATOM     24  N   UNL     1     -42.689  -3.337 -32.647  0.00  0.00    +0.000 NA
ATOM     25  C   UNL     1     -43.985  -2.958 -32.454  0.00  0.00    +0.000 A 
ATOM     26  C   UNL     1     -44.511  -1.807 -33.244  0.00  0.00    +0.000 C 
ATOM     27  N   UNL     1     -40.945  -4.867 -32.005  0.00  0.00    +0.000 N 
ATOM     28  N   UNL     1     -40.844  -5.898 -31.177  0.00  0.00    +0.000 NA
ATOM     29  C   UNL     1     -42.062  -6.095 -30.614  0.00  0.00    +0.000 A 
ATOM     30  C   UNL     1     -39.846  -4.344 -32.797  0.00  0.00    +0.000 C 
ATOM     31  C   UNL     1     -45.082  -5.441 -29.754  0.00  0.00    +0.000 C 
BRANCH  29  32
ATOM     32  O   UNL     1     -42.302  -7.137 -29.715  0.00  0.00    +0.000 OA
ATOM     33  C   UNL     1     -42.020  -7.037 -28.330  0.00  0.00    +0.000 C 
ENDBRANCH  29  32
ENDBRANCH  19  20
ENDBRANCH  18  19
ENDBRANCH   2  18
TORSDOF 7
ENDMDL
MODEL 3
REMARK VINA RESULT:      -6.3     11.866     16.622
REMARK  Name = ZINC000030726767 ZINC30726767 PubChem-37870901
REMARK  7 active torsions:
REMARK  status: ('A' for Active; 'I' for Inactive)
REMARK    1  A    between atoms: N_1  and  C_10
REMARK    2  A    between atoms: C_2  and  C_18
REMARK    3  A    between atoms: C_5  and  O_15
REMARK    4  A    between atoms: O_15  and  C_17
REMARK    5  A    between atoms: C_18  and  C_19
REMARK    6  A    between atoms: C_19  and  C_20
REMARK    7  A    between atoms: C_29  and  O_32
REMARK                            x       y       z     vdW  Elec       q    Type
REMARK                         _______ _______ _______ _____ _____    ______ ____
ROOT
ATOM      1  N   UNL     1     -47.314  -3.908 -31.521  0.00  0.00    +0.000 N 
ATOM      2  C   UNL     1     -46.346  -3.344 -32.416  0.00  0.00    +0.000 C 
ATOM      3  O   UNL     1     -46.740  -2.595 -33.347  0.00  0.00    +0.000 OA
ATOM      4  H   UNL     1     -48.226  -3.544 -31.581  0.00  0.00    +0.000 HD
ENDROOT
BRANCH   1  10
ATOM      5  C   UNL     1     -47.006  -6.286 -30.984  0.00  0.00    +0.000 A 
ATOM      6  C   UNL     1     -46.777  -7.317 -30.046  0.00  0.00    +0.000 A 
ATOM      7  C   UNL     1     -46.649  -6.977 -28.703  0.00  0.00    +0.000 A 
ATOM      8  C   UNL     1     -46.729  -5.684 -28.288  0.00  0.00    +0.000 A 
ATOM      9  C   UNL     1     -46.950  -4.640 -29.180  0.00  0.00    +0.000 A 
ATOM     10  C   UNL     1     -47.104  -4.943 -30.548  0.00  0.00    +0.000 A 
ATOM     11  O   UNL     1     -46.570  -5.583 -26.924  0.00  0.00    +0.000 OA
ATOM     12  C   UNL     1     -46.380  -6.880 -26.357  0.00  0.00    +0.000 C 
ATOM     13  C   UNL     1     -46.408  -7.870 -27.543  0.00  0.00    +0.000 C 
ATOM     14  C   UNL     1     -45.034  -6.946 -25.665  0.00  0.00    +0.000 C 
BRANCH   5  15
ATOM     15  O   UNL     1     -47.144  -6.572 -32.348  0.00  0.00    +0.000 OA
BRANCH  15  17
ATOM     16  C   UNL     1     -46.085  -6.368 -34.489  0.00  0.00    +0.000 C 
ATOM     17  C   UNL     1     -46.072  -7.062 -33.142  0.00  0.00    +0.000 C 
ENDBRANCH  15  17
ENDBRANCH   5  15
ENDBRANCH   1  10
BRANCH   2  18
ATOM     18  C   UNL     1     -44.879  -3.548 -32.234  0.00  0.00    +0.000 C 
BRANCH  18  19
ATOM     19  C   UNL     1     -44.148  -3.194 -33.518  0.00  0.00    +0.000 C 
BRANCH  19  20
ATOM     20  C   UNL     1     -42.839  -2.522 -33.214  0.00  0.00    +0.000 A 
ATOM     21  C   UNL     1     -41.625  -3.228 -33.406  0.00  0.00    +0.000 A 
ATOM     22  C   UNL     1     -40.431  -2.546 -33.132  0.00  0.00    +0.000 A 
ATOM     23  C   UNL     1     -40.460  -1.270 -32.645  0.00  0.00    +0.000 A 
ATOM     24  N   UNL     1     -41.610  -0.582 -32.451  0.00  0.00    +0.000 NA
ATOM     25  C   UNL     1     -42.803  -1.178 -32.744  0.00  0.00    +0.000 A 
ATOM     26  C   UNL     1     -44.054  -0.387 -32.560  0.00  0.00    +0.000 C 
ATOM     27  N   UNL     1     -39.220  -0.849 -32.360  0.00  0.00    +0.000 N 
ATOM     28  N   UNL     1     -38.361  -1.815 -32.655  0.00  0.00    +0.000 NA
ATOM     29  C   UNL     1     -39.070  -2.862 -33.146  0.00  0.00    +0.000 A 
ATOM     30  C   UNL     1     -38.843   0.438 -31.803  0.00  0.00    +0.000 C 
ATOM     31  C   UNL     1     -41.638  -4.669 -33.799  0.00  0.00    +0.000 C 
BRANCH  29  32
ATOM     32  O   UNL     1     -38.450  -4.033 -33.589  0.00  0.00    +0.000 OA
ATOM     33  C   UNL     1     -38.064  -4.235 -34.938  0.00  0.00    +0.000 C 
ENDBRANCH  29  32
ENDBRANCH  19  20
ENDBRANCH  18  19
ENDBRANCH   2  18
TORSDOF 7
ENDMDL
