MODEL 1
REMARK VINA RESULT:      -5.9      0.000      0.000
REMARK  Name = ZINC000096181382 ZINC96181382 PubChem-97457252
REMARK  4 active torsions:
REMARK  status: ('A' for Active; 'I' for Inactive)
REMARK    1  A    between atoms: C_1  and  C_12
REMARK    2  A    between atoms: C_2  and  C_15
REMARK    3  A    between atoms: N_17  and  C_19
REMARK    4  A    between atoms: C_19  and  C_20
REMARK                            x       y       z     vdW  Elec       q    Type
REMARK                         _______ _______ _______ _____ _____    ______ ____
ROOT
ATOM      1  C   UNL     1     -44.212 -17.024 -22.910  0.00  0.00    +0.000 C 
ATOM      2  C   UNL     1     -45.236 -18.113 -22.542  0.00  0.00    +0.000 C 
ATOM      3  C   UNL     1     -45.671 -18.813 -23.835  0.00  0.00    +0.000 C 
ATOM      4  C   UNL     1     -44.988 -18.025 -24.881  0.00  0.00    +0.000 C 
ATOM      5  O   UNL     1     -45.090 -18.264 -26.113  0.00  0.00    +0.000 OA
ATOM      6  N   UNL     1     -44.183 -16.987 -24.361  0.00  0.00    +0.000 N 
ATOM      7  C   UNL     1     -43.194 -16.253 -25.133  0.00  0.00    +0.000 C 
ENDROOT
BRANCH   1  12
ATOM      8  C   UNL     1     -45.843 -11.909 -20.755  0.00  0.00    +0.000 C 
ATOM      9  C   UNL     1     -45.417 -13.222 -21.306  0.00  0.00    +0.000 A 
ATOM     10  C   UNL     1     -44.061 -13.561 -21.329  0.00  0.00    +0.000 A 
ATOM     11  C   UNL     1     -43.659 -14.796 -21.847  0.00  0.00    +0.000 A 
ATOM     12  C   UNL     1     -44.615 -15.697 -22.341  0.00  0.00    +0.000 A 
ATOM     13  C   UNL     1     -45.970 -15.351 -22.319  0.00  0.00    +0.000 A 
ATOM     14  C   UNL     1     -46.371 -14.115 -21.801  0.00  0.00    +0.000 A 
ENDBRANCH   1  12
BRANCH   2  15
ATOM     15  C   UNL     1     -44.688 -19.080 -21.534  0.00  0.00    +0.000 C 
ATOM     16  O   UNL     1     -43.692 -19.779 -21.853  0.00  0.00    +0.000 OA
ATOM     17  N   UNL     1     -45.256 -19.240 -20.227  0.00  0.00    +0.000 N 
ATOM     18  H   UNL     1     -44.843 -19.894 -19.619  0.00  0.00    +0.000 HD
BRANCH  17  19
ATOM     19  C   UNL     1     -46.409 -18.492 -19.749  0.00  0.00    +0.000 C 
BRANCH  19  20
ATOM     20  C   UNL     1     -45.961 -17.214 -19.135  0.00  0.00    +0.000 A 
ATOM     21  C   UNL     1     -46.904 -16.253 -18.754  0.00  0.00    +0.000 A 
ATOM     22  C   UNL     1     -46.484 -15.059 -18.157  0.00  0.00    +0.000 A 
ATOM     23  C   UNL     1     -45.122 -14.829 -17.938  0.00  0.00    +0.000 A 
ATOM     24  C   UNL     1     -44.181 -15.791 -18.313  0.00  0.00    +0.000 A 
ATOM     25  C   UNL     1     -44.600 -16.985 -18.909  0.00  0.00    +0.000 A 
ENDBRANCH  19  20
ENDBRANCH  17  19
ENDBRANCH   2  15
TORSDOF 4
ENDMDL
MODEL 2
REMARK VINA RESULT:      -5.6     11.877     14.263
REMARK  Name = ZINC000096181382 ZINC96181382 PubChem-97457252
REMARK  4 active torsions:
REMARK  status: ('A' for Active; 'I' for Inactive)
REMARK    1  A    between atoms: C_1  and  C_12
REMARK    2  A    between atoms: C_2  and  C_15
REMARK    3  A    between atoms: N_17  and  C_19
REMARK    4  A    between atoms: C_19  and  C_20
REMARK                            x       y       z     vdW  Elec       q    Type
REMARK                         _______ _______ _______ _____ _____    ______ ____
ROOT
ATOM      1  C   UNL     1     -45.314  -5.305 -31.875  0.00  0.00    +0.000 C 
ATOM      2  C   UNL     1     -46.570  -5.672 -32.685  0.00  0.00    +0.000 C 
ATOM      3  C   UNL     1     -46.891  -4.501 -33.623  0.00  0.00    +0.000 C 
ATOM      4  C   UNL     1     -45.899  -3.481 -33.226  0.00  0.00    +0.000 C 
ATOM      5  O   UNL     1     -45.823  -2.340 -33.752  0.00  0.00    +0.000 OA
ATOM      6  N   UNL     1     -45.022  -3.923 -32.211  0.00  0.00    +0.000 N 
ATOM      7  C   UNL     1     -43.793  -3.242 -31.838  0.00  0.00    +0.000 C 
ENDROOT
BRANCH   1  12
ATOM      8  C   UNL     1     -46.325  -5.874 -26.208  0.00  0.00    +0.000 C 
ATOM      9  C   UNL     1     -46.058  -5.732 -27.663  0.00  0.00    +0.000 A 
ATOM     10  C   UNL     1     -44.822  -6.118 -28.187  0.00  0.00    +0.000 A 
ATOM     11  C   UNL     1     -44.570  -5.985 -29.556  0.00  0.00    +0.000 A 
ATOM     12  C   UNL     1     -45.559  -5.466 -30.406  0.00  0.00    +0.000 A 
ATOM     13  C   UNL     1     -46.794  -5.078 -29.876  0.00  0.00    +0.000 A 
ATOM     14  C   UNL     1     -47.044  -5.212 -28.506  0.00  0.00    +0.000 A 
ENDBRANCH   1  12
BRANCH   2  15
ATOM     15  C   UNL     1     -46.399  -6.962 -33.432  0.00  0.00    +0.000 C 
ATOM     16  O   UNL     1     -45.734  -6.953 -34.500  0.00  0.00    +0.000 OA
ATOM     17  N   UNL     1     -46.965  -8.199 -32.979  0.00  0.00    +0.000 N 
ATOM     18  H   UNL     1     -46.810  -9.005 -33.523  0.00  0.00    +0.000 HD
BRANCH  17  19
ATOM     19  C   UNL     1     -47.756  -8.331 -31.766  0.00  0.00    +0.000 C 
BRANCH  19  20
ATOM     20  C   UNL     1     -46.903  -8.845 -30.662  0.00  0.00    +0.000 A 
ATOM     21  C   UNL     1     -45.607  -9.298 -30.932  0.00  0.00    +0.000 A 
ATOM     22  C   UNL     1     -44.797  -9.762 -29.890  0.00  0.00    +0.000 A 
ATOM     23  C   UNL     1     -45.282  -9.771 -28.579  0.00  0.00    +0.000 A 
ATOM     24  C   UNL     1     -46.574  -9.313 -28.308  0.00  0.00    +0.000 A 
ATOM     25  C   UNL     1     -47.385  -8.848 -29.348  0.00  0.00    +0.000 A 
ENDBRANCH  19  20
ENDBRANCH  17  19
ENDBRANCH   2  15
TORSDOF 4
ENDMDL
MODEL 3
REMARK VINA RESULT:      -5.4      2.699      5.653
REMARK  Name = ZINC000096181382 ZINC96181382 PubChem-97457252
REMARK  4 active torsions:
REMARK  status: ('A' for Active; 'I' for Inactive)
REMARK    1  A    between atoms: C_1  and  C_12
REMARK    2  A    between atoms: C_2  and  C_15
REMARK    3  A    between atoms: N_17  and  C_19
REMARK    4  A    between atoms: C_19  and  C_20
REMARK                            x       y       z     vdW  Elec       q    Type
REMARK                         _______ _______ _______ _____ _____    ______ ____
ROOT
ATOM      1  C   UNL     1     -42.937 -19.970 -20.930  0.00  0.00    +0.000 C 
ATOM      2  C   UNL     1     -41.766 -20.108 -21.919  0.00  0.00    +0.000 C 
ATOM      3  C   UNL     1     -40.495 -20.403 -21.113  0.00  0.00    +0.000 C 
ATOM      4  C   UNL     1     -40.960 -20.297 -19.715  0.00  0.00    +0.000 C 
ATOM      5  O   UNL     1     -40.212 -20.460 -18.716  0.00  0.00    +0.000 OA
ATOM      6  N   UNL     1     -42.341 -20.020 -19.608  0.00  0.00    +0.000 N 
ATOM      7  C   UNL     1     -43.107 -20.143 -18.378  0.00  0.00    +0.000 C 
ENDROOT
BRANCH   1  12
ATOM      8  C   UNL     1     -45.842 -15.041 -21.779  0.00  0.00    +0.000 C 
ATOM      9  C   UNL     1     -45.089 -16.303 -21.562  0.00  0.00    +0.000 A 
ATOM     10  C   UNL     1     -43.696 -16.313 -21.676  0.00  0.00    +0.000 A 
ATOM     11  C   UNL     1     -42.986 -17.500 -21.471  0.00  0.00    +0.000 A 
ATOM     12  C   UNL     1     -43.671 -18.682 -21.147  0.00  0.00    +0.000 A 
ATOM     13  C   UNL     1     -45.065 -18.667 -21.037  0.00  0.00    +0.000 A 
ATOM     14  C   UNL     1     -45.774 -17.479 -21.243  0.00  0.00    +0.000 A 
ENDBRANCH   1  12
BRANCH   2  15
ATOM     15  C   UNL     1     -42.030 -21.157 -22.960  0.00  0.00    +0.000 C 
ATOM     16  O   UNL     1     -42.111 -22.357 -22.593  0.00  0.00    +0.000 OA
ATOM     17  N   UNL     1     -42.189 -20.844 -24.349  0.00  0.00    +0.000 N 
ATOM     18  H   UNL     1     -42.361 -21.586 -24.974  0.00  0.00    +0.000 HD
BRANCH  17  19
ATOM     19  C   UNL     1     -42.110 -19.496 -24.890  0.00  0.00    +0.000 C 
BRANCH  19  20
ATOM     20  C   UNL     1     -43.466 -18.886 -24.922  0.00  0.00    +0.000 A 
ATOM     21  C   UNL     1     -44.594 -19.672 -24.659  0.00  0.00    +0.000 A 
ATOM     22  C   UNL     1     -45.867 -19.093 -24.668  0.00  0.00    +0.000 A 
ATOM     23  C   UNL     1     -46.013 -17.729 -24.936  0.00  0.00    +0.000 A 
ATOM     24  C   UNL     1     -44.887 -16.942 -25.193  0.00  0.00    +0.000 A 
ATOM     25  C   UNL     1     -43.613 -17.519 -25.183  0.00  0.00    +0.000 A 
ENDBRANCH  19  20
ENDBRANCH  17  19
ENDBRANCH   2  15
TORSDOF 4
ENDMDL
