MODEL 1
REMARK VINA RESULT:      -6.8      0.000      0.000
REMARK  Name = ZINC000018200764
REMARK  2 active torsions:
REMARK  status: ('A' for Active; 'I' for Inactive)
REMARK    1  A    between atoms: C_14  and  O_15
REMARK    2  A    between atoms: C_17  and  C_21
REMARK                            x       y       z     vdW  Elec       q    Type
REMARK                         _______ _______ _______ _____ _____    ______ ____
ROOT
ATOM      1  C   UNL     1     -44.128 -10.094 -30.881  0.00  0.00    +0.000 C 
ATOM      2  C   UNL     1     -45.612 -10.377 -31.062  0.00  0.00    +0.000 C 
ATOM      3  C   UNL     1     -45.782 -11.850 -31.363  0.00  0.00    +0.000 C 
ATOM      4  C   UNL     1     -46.159  -9.572 -32.242  0.00  0.00    +0.000 C 
ATOM      5  C   UNL     1     -46.413  -8.130 -31.904  0.00  0.00    +0.000 C 
ATOM      6  O   UNL     1     -46.625  -7.319 -32.844  0.00  0.00    +0.000 OA
ATOM      7  C   UNL     1     -46.441  -7.660 -30.497  0.00  0.00    +0.000 C 
ATOM      8  C   UNL     1     -46.408  -8.575 -29.485  0.00  0.00    +0.000 C 
ATOM      9  C   UNL     1     -46.377 -10.049 -29.778  0.00  0.00    +0.000 C 
ATOM     10  N   UNL     1     -46.519  -8.171 -28.108  0.00  0.00    +0.000 N 
ATOM     11  C   UNL     1     -46.689  -6.790 -27.815  0.00  0.00    +0.000 A 
ATOM     12  N   UNL     1     -46.879  -6.249 -26.598  0.00  0.00    +0.000 N 
ATOM     13  N   UNL     1     -47.015  -4.937 -26.774  0.00  0.00    +0.000 NA
ATOM     14  C   UNL     1     -46.912  -4.676 -28.095  0.00  0.00    +0.000 A 
ATOM     15  C   UNL     1     -46.709  -5.847 -28.784  0.00  0.00    +0.000 A 
ATOM     16  C   UNL     1     -46.474  -6.150 -30.231  0.00  0.00    +0.000 C 
ATOM     17  H   UNL     1     -46.478  -8.837 -27.384  0.00  0.00    +0.000 HD
ATOM     18  H   UNL     1     -46.910  -6.732 -25.740  0.00  0.00    +0.000 HD
ENDROOT
BRANCH  16  19
ATOM     19  C   UNL     1     -45.213  -5.478 -30.713  0.00  0.00    +0.000 A 
ATOM     20  C   UNL     1     -43.967  -5.894 -30.226  0.00  0.00    +0.000 A 
ATOM     21  C   UNL     1     -42.801  -5.267 -30.666  0.00  0.00    +0.000 A 
ATOM     22  N   UNL     1     -42.870  -4.249 -31.563  0.00  0.00    +0.000 NA
ATOM     23  C   UNL     1     -44.058  -3.812 -32.057  0.00  0.00    +0.000 A 
ATOM     24  C   UNL     1     -44.086  -2.760 -32.976  0.00  0.00    +0.000 A 
ATOM     25  C   UNL     1     -45.306  -2.305 -33.485  0.00  0.00    +0.000 A 
ATOM     26  C   UNL     1     -46.503  -2.899 -33.076  0.00  0.00    +0.000 A 
ATOM     27  C   UNL     1     -46.484  -3.953 -32.157  0.00  0.00    +0.000 A 
ATOM     28  C   UNL     1     -45.266  -4.419 -31.639  0.00  0.00    +0.000 A 
ENDBRANCH  16  19
BRANCH  14  29
ATOM     29  O   UNL     1     -46.993  -3.406 -28.648  0.00  0.00    +0.000 OA
ATOM     30  H   UNL     1     -46.696  -2.662 -28.161  0.00  0.00    +0.000 HD
ENDBRANCH  14  29
TORSDOF 2
ENDMDL
MODEL 2
REMARK VINA RESULT:      -6.7      2.404      6.172
REMARK  Name = ZINC000018200764
REMARK  2 active torsions:
REMARK  status: ('A' for Active; 'I' for Inactive)
REMARK    1  A    between atoms: C_14  and  O_15
REMARK    2  A    between atoms: C_17  and  C_21
REMARK                            x       y       z     vdW  Elec       q    Type
REMARK                         _______ _______ _______ _____ _____    ______ ____
ROOT
ATOM      1  C   UNL     1     -42.866  -2.413 -32.529  0.00  0.00    +0.000 C 
ATOM      2  C   UNL     1     -44.236  -1.791 -32.754  0.00  0.00    +0.000 C 
ATOM      3  C   UNL     1     -44.044  -0.455 -33.437  0.00  0.00    +0.000 C 
ATOM      4  C   UNL     1     -44.931  -1.557 -31.412  0.00  0.00    +0.000 C 
ATOM      5  C   UNL     1     -45.528  -2.808 -30.832  0.00  0.00    +0.000 C 
ATOM      6  O   UNL     1     -45.905  -2.794 -29.630  0.00  0.00    +0.000 OA
ATOM      7  C   UNL     1     -45.697  -4.034 -31.650  0.00  0.00    +0.000 C 
ATOM      8  C   UNL     1     -45.471  -3.978 -32.995  0.00  0.00    +0.000 C 
ATOM      9  C   UNL     1     -45.085  -2.686 -33.659  0.00  0.00    +0.000 C 
ATOM     10  N   UNL     1     -45.705  -5.119 -33.841  0.00  0.00    +0.000 N 
ATOM     11  C   UNL     1     -46.205  -6.312 -33.252  0.00  0.00    +0.000 A 
ATOM     12  N   UNL     1     -46.544  -7.442 -33.899  0.00  0.00    +0.000 N 
ATOM     13  N   UNL     1     -46.984  -8.298 -32.981  0.00  0.00    +0.000 NA
ATOM     14  C   UNL     1     -46.916  -7.693 -31.774  0.00  0.00    +0.000 A 
ATOM     15  C   UNL     1     -46.426  -6.419 -31.922  0.00  0.00    +0.000 A 
ATOM     16  C   UNL     1     -46.094  -5.335 -30.943  0.00  0.00    +0.000 C 
ATOM     17  H   UNL     1     -45.523  -5.073 -34.807  0.00  0.00    +0.000 HD
ATOM     18  H   UNL     1     -46.479  -7.604 -34.868  0.00  0.00    +0.000 HD
ENDROOT
BRANCH  16  19
ATOM     19  C   UNL     1     -45.018  -5.795 -29.992  0.00  0.00    +0.000 A 
ATOM     20  C   UNL     1     -43.711  -5.998 -30.457  0.00  0.00    +0.000 A 
ATOM     21  C   UNL     1     -42.718  -6.432 -29.578  0.00  0.00    +0.000 A 
ATOM     22  N   UNL     1     -43.014  -6.662 -28.272  0.00  0.00    +0.000 NA
ATOM     23  C   UNL     1     -44.269  -6.482 -27.782  0.00  0.00    +0.000 A 
ATOM     24  C   UNL     1     -44.532  -6.734 -26.433  0.00  0.00    +0.000 A 
ATOM     25  C   UNL     1     -45.822  -6.553 -25.925  0.00  0.00    +0.000 A 
ATOM     26  C   UNL     1     -46.853  -6.121 -26.764  0.00  0.00    +0.000 A 
ATOM     27  C   UNL     1     -46.598  -5.866 -28.114  0.00  0.00    +0.000 A 
ATOM     28  C   UNL     1     -45.308  -6.043 -28.637  0.00  0.00    +0.000 A 
ENDBRANCH  16  19
BRANCH  14  29
ATOM     29  O   UNL     1     -47.284  -8.295 -30.579  0.00  0.00    +0.000 OA
ATOM     30  H   UNL     1     -47.216  -7.820 -29.774  0.00  0.00    +0.000 HD
ENDBRANCH  14  29
TORSDOF 2
ENDMDL
MODEL 3
REMARK VINA RESULT:      -6.6      1.705      2.133
REMARK  Name = ZINC000018200764
REMARK  2 active torsions:
REMARK  status: ('A' for Active; 'I' for Inactive)
REMARK    1  A    between atoms: C_14  and  O_15
REMARK    2  A    between atoms: C_17  and  C_21
REMARK                            x       y       z     vdW  Elec       q    Type
REMARK                         _______ _______ _______ _____ _____    ______ ____
ROOT
ATOM      1  C   UNL     1     -44.121  -9.690 -32.973  0.00  0.00    +0.000 C 
ATOM      2  C   UNL     1     -45.492  -9.590 -33.623  0.00  0.00    +0.000 C 
ATOM      3  C   UNL     1     -45.782 -10.900 -34.324  0.00  0.00    +0.000 C 
ATOM      4  C   UNL     1     -45.499  -8.469 -34.663  0.00  0.00    +0.000 C 
ATOM      5  C   UNL     1     -45.622  -7.101 -34.054  0.00  0.00    +0.000 C 
ATOM      6  O   UNL     1     -45.392  -6.096 -34.778  0.00  0.00    +0.000 OA
ATOM      7  C   UNL     1     -46.027  -6.920 -32.639  0.00  0.00    +0.000 C 
ATOM      8  C   UNL     1     -46.464  -7.998 -31.924  0.00  0.00    +0.000 C 
ATOM      9  C   UNL     1     -46.568  -9.355 -32.562  0.00  0.00    +0.000 C 
ATOM     10  N   UNL     1     -46.947  -7.855 -30.576  0.00  0.00    +0.000 N 
ATOM     11  C   UNL     1     -46.987  -6.556 -30.000  0.00  0.00    +0.000 A 
ATOM     12  N   UNL     1     -47.471  -6.233 -28.787  0.00  0.00    +0.000 N 
ATOM     13  N   UNL     1     -47.338  -4.916 -28.655  0.00  0.00    +0.000 NA
ATOM     14  C   UNL     1     -46.777  -4.432 -29.785  0.00  0.00    +0.000 A 
ATOM     15  C   UNL     1     -46.547  -5.462 -30.664  0.00  0.00    +0.000 A 
ATOM     16  C   UNL     1     -45.910  -5.523 -32.018  0.00  0.00    +0.000 C 
ATOM     17  H   UNL     1     -47.245  -8.641 -30.063  0.00  0.00    +0.000 HD
ATOM     18  H   UNL     1     -47.851  -6.853 -28.124  0.00  0.00    +0.000 HD
ENDROOT
BRANCH  16  19
ATOM     19  C   UNL     1     -44.473  -5.071 -31.945  0.00  0.00    +0.000 A 
ATOM     20  C   UNL     1     -43.509  -5.894 -31.344  0.00  0.00    +0.000 A 
ATOM     21  C   UNL     1     -42.181  -5.473 -31.269  0.00  0.00    +0.000 A 
ATOM     22  N   UNL     1     -41.818  -4.264 -31.773  0.00  0.00    +0.000 NA
ATOM     23  C   UNL     1     -42.722  -3.435 -32.359  0.00  0.00    +0.000 A 
ATOM     24  C   UNL     1     -42.308  -2.198 -32.863  0.00  0.00    +0.000 A 
ATOM     25  C   UNL     1     -43.234  -1.341 -33.464  0.00  0.00    +0.000 A 
ATOM     26  C   UNL     1     -44.577  -1.716 -33.563  0.00  0.00    +0.000 A 
ATOM     27  C   UNL     1     -44.999  -2.951 -33.063  0.00  0.00    +0.000 A 
ATOM     28  C   UNL     1     -44.080  -3.821 -32.458  0.00  0.00    +0.000 A 
ENDBRANCH  16  19
BRANCH  14  29
ATOM     29  O   UNL     1     -46.478  -3.094 -29.997  0.00  0.00    +0.000 OA
ATOM     30  H   UNL     1     -45.915  -2.845 -30.703  0.00  0.00    +0.000 HD
ENDBRANCH  14  29
TORSDOF 2
ENDMDL
