MODEL 1
REMARK VINA RESULT:      -7.3      0.000      0.000
REMARK  Name = ZINC000023126404 MCULE-3872663354
REMARK  6 active torsions:
REMARK  status: ('A' for Active; 'I' for Inactive)
REMARK    1  A    between atoms: C_4  and  S_25
REMARK    2  A    between atoms: C_10  and  C_16
REMARK    3  A    between atoms: N_18  and  C_20
REMARK    4  A    between atoms: S_25  and  C_26
REMARK    5  A    between atoms: C_26  and  C_27
REMARK    6  A    between atoms: N_29  and  C_31
REMARK                            x       y       z     vdW  Elec       q    Type
REMARK                         _______ _______ _______ _____ _____    ______ ____
ROOT
ATOM      1  C   UNL     1     -47.282  -4.767 -21.801  0.00  0.00    +0.000 A 
ATOM      2  N   UNL     1     -47.311  -5.754 -20.886  0.00  0.00    +0.000 NA
ATOM      3  N   UNL     1     -47.411  -6.888 -21.572  0.00  0.00    +0.000 NA
ATOM      4  C   UNL     1     -47.438  -6.569 -22.883  0.00  0.00    +0.000 A 
ATOM      5  N   UNL     1     -47.356  -5.232 -23.054  0.00  0.00    +0.000 N 
ATOM      6  C   UNL     1     -47.337  -4.414 -24.141  0.00  0.00    +0.000 A 
ATOM      7  C   UNL     1     -47.256  -3.021 -23.915  0.00  0.00    +0.000 A 
ATOM      8  C   UNL     1     -47.237  -2.145 -25.008  0.00  0.00    +0.000 A 
ATOM      9  C   UNL     1     -47.285  -2.647 -26.312  0.00  0.00    +0.000 A 
ATOM     10  C   UNL     1     -47.350  -4.029 -26.542  0.00  0.00    +0.000 A 
ATOM     11  C   UNL     1     -47.378  -4.907 -25.450  0.00  0.00    +0.000 A 
ATOM     12  C   UNL     1     -47.189  -2.548 -22.583  0.00  0.00    +0.000 A 
ATOM     13  O   UNL     1     -47.118  -1.307 -22.360  0.00  0.00    +0.000 OA
ATOM     14  N   UNL     1     -47.199  -3.435 -21.535  0.00  0.00    +0.000 N 
ATOM     15  C   UNL     1     -47.128  -2.966 -20.156  0.00  0.00    +0.000 C 
ENDROOT
BRANCH  10  16
ATOM     16  C   UNL     1     -47.375  -4.556 -27.917  0.00  0.00    +0.000 C 
ATOM     17  O   UNL     1     -47.689  -3.800 -28.877  0.00  0.00    +0.000 OA
ATOM     18  N   UNL     1     -47.024  -5.921 -28.167  0.00  0.00    +0.000 N 
ATOM     19  H   UNL     1     -46.753  -6.487 -27.408  0.00  0.00    +0.000 HD
BRANCH  18  20
ATOM     20  C   UNL     1     -47.054  -6.503 -29.500  0.00  0.00    +0.000 C 
ATOM     21  C   UNL     1     -47.388  -7.984 -29.414  0.00  0.00    +0.000 C 
ATOM     22  C   UNL     1     -46.153  -8.732 -29.871  0.00  0.00    +0.000 C 
ATOM     23  C   UNL     1     -45.386  -7.755 -30.725  0.00  0.00    +0.000 C 
ATOM     24  C   UNL     1     -45.678  -6.398 -30.129  0.00  0.00    +0.000 C 
ENDBRANCH  18  20
ENDBRANCH  10  16
BRANCH   4  25
ATOM     25  S   UNL     1     -47.631  -7.785 -24.185  0.00  0.00    +0.000 S 
BRANCH  25  26
ATOM     26  C   UNL     1     -46.094  -8.648 -23.723  0.00  0.00    +0.000 C 
BRANCH  26  27
ATOM     27  C   UNL     1     -45.828  -9.849 -24.576  0.00  0.00    +0.000 C 
ATOM     28  O   UNL     1     -45.131 -10.781 -24.097  0.00  0.00    +0.000 OA
ATOM     29  N   UNL     1     -46.372  -9.945 -25.902  0.00  0.00    +0.000 N 
ATOM     30  H   UNL     1     -46.968  -9.216 -26.187  0.00  0.00    +0.000 HD
BRANCH  29  31
ATOM     31  C   UNL     1     -46.137 -10.991 -26.853  0.00  0.00    +0.000 A 
ATOM     32  C   UNL     1     -44.863 -11.111 -27.421  0.00  0.00    +0.000 A 
ATOM     33  C   UNL     1     -44.589 -12.134 -28.333  0.00  0.00    +0.000 A 
ATOM     34  C   UNL     1     -45.588 -13.047 -28.681  0.00  0.00    +0.000 A 
ATOM     35  C   UNL     1     -46.863 -12.936 -28.117  0.00  0.00    +0.000 A 
ATOM     36  C   UNL     1     -47.136 -11.912 -27.206  0.00  0.00    +0.000 A 
ATOM     37  F   UNL     1     -45.322 -14.041 -29.562  0.00  0.00    +0.000 F 
ENDBRANCH  29  31
ENDBRANCH  26  27
ENDBRANCH  25  26
ENDBRANCH   4  25
TORSDOF 6
ENDMDL
MODEL 2
REMARK VINA RESULT:      -7.3      4.963      8.236
REMARK  Name = ZINC000023126404 MCULE-3872663354
REMARK  6 active torsions:
REMARK  status: ('A' for Active; 'I' for Inactive)
REMARK    1  A    between atoms: C_4  and  S_25
REMARK    2  A    between atoms: C_10  and  C_16
REMARK    3  A    between atoms: N_18  and  C_20
REMARK    4  A    between atoms: S_25  and  C_26
REMARK    5  A    between atoms: C_26  and  C_27
REMARK    6  A    between atoms: N_29  and  C_31
REMARK                            x       y       z     vdW  Elec       q    Type
REMARK                         _______ _______ _______ _____ _____    ______ ____
ROOT
ATOM      1  C   UNL     1     -45.757 -10.463 -29.193  0.00  0.00    +0.000 A 
ATOM      2  N   UNL     1     -45.775 -11.494 -30.059  0.00  0.00    +0.000 NA
ATOM      3  N   UNL     1     -46.106 -10.978 -31.238  0.00  0.00    +0.000 NA
ATOM      4  C   UNL     1     -46.278  -9.650 -31.066  0.00  0.00    +0.000 A 
ATOM      5  N   UNL     1     -46.061  -9.299 -29.781  0.00  0.00    +0.000 N 
ATOM      6  C   UNL     1     -46.097  -8.123 -29.100  0.00  0.00    +0.000 A 
ATOM      7  C   UNL     1     -45.818  -8.155 -27.714  0.00  0.00    +0.000 A 
ATOM      8  C   UNL     1     -45.848  -6.964 -26.977  0.00  0.00    +0.000 A 
ATOM      9  C   UNL     1     -46.139  -5.752 -27.610  0.00  0.00    +0.000 A 
ATOM     10  C   UNL     1     -46.401  -5.712 -28.987  0.00  0.00    +0.000 A 
ATOM     11  C   UNL     1     -46.381  -6.903 -29.726  0.00  0.00    +0.000 A 
ATOM     12  C   UNL     1     -45.509  -9.396 -27.109  0.00  0.00    +0.000 A 
ATOM     13  O   UNL     1     -45.259  -9.447 -25.872  0.00  0.00    +0.000 OA
ATOM     14  N   UNL     1     -45.477 -10.543 -27.863  0.00  0.00    +0.000 N 
ATOM     15  C   UNL     1     -45.158 -11.830 -27.257  0.00  0.00    +0.000 C 
ENDROOT
BRANCH  10  16
ATOM     16  C   UNL     1     -46.682  -4.431 -29.656  0.00  0.00    +0.000 C 
ATOM     17  O   UNL     1     -47.565  -3.658 -29.194  0.00  0.00    +0.000 OA
ATOM     18  N   UNL     1     -45.940  -4.053 -30.821  0.00  0.00    +0.000 N 
ATOM     19  H   UNL     1     -45.234  -4.657 -31.149  0.00  0.00    +0.000 HD
BRANCH  18  20
ATOM     20  C   UNL     1     -46.189  -2.812 -31.537  0.00  0.00    +0.000 C 
ATOM     21  C   UNL     1     -46.130  -3.055 -33.037  0.00  0.00    +0.000 C 
ATOM     22  C   UNL     1     -44.924  -2.298 -33.550  0.00  0.00    +0.000 C 
ATOM     23  C   UNL     1     -44.667  -1.216 -32.530  0.00  0.00    +0.000 C 
ATOM     24  C   UNL     1     -45.098  -1.811 -31.210  0.00  0.00    +0.000 C 
ENDBRANCH  18  20
ENDBRANCH  10  16
BRANCH   4  25
ATOM     25  S   UNL     1     -46.796  -8.551 -32.383  0.00  0.00    +0.000 S 
BRANCH  25  26
ATOM     26  C   UNL     1     -45.417  -9.054 -33.462  0.00  0.00    +0.000 C 
BRANCH  26  27
ATOM     27  C   UNL     1     -44.254  -8.115 -33.388  0.00  0.00    +0.000 C 
ATOM     28  O   UNL     1     -43.107  -8.596 -33.195  0.00  0.00    +0.000 OA
ATOM     29  N   UNL     1     -44.439  -6.701 -33.555  0.00  0.00    +0.000 N 
ATOM     30  H   UNL     1     -45.348  -6.398 -33.778  0.00  0.00    +0.000 HD
BRANCH  29  31
ATOM     31  C   UNL     1     -43.437  -5.683 -33.433  0.00  0.00    +0.000 A 
ATOM     32  C   UNL     1     -43.099  -5.221 -32.156  0.00  0.00    +0.000 A 
ATOM     33  C   UNL     1     -42.110  -4.247 -31.994  0.00  0.00    +0.000 A 
ATOM     34  C   UNL     1     -41.447  -3.732 -33.111  0.00  0.00    +0.000 A 
ATOM     35  C   UNL     1     -41.776  -4.189 -34.391  0.00  0.00    +0.000 A 
ATOM     36  C   UNL     1     -42.767  -5.161 -34.551  0.00  0.00    +0.000 A 
ATOM     37  F   UNL     1     -40.485  -2.792 -32.955  0.00  0.00    +0.000 F 
ENDBRANCH  29  31
ENDBRANCH  26  27
ENDBRANCH  25  26
ENDBRANCH   4  25
TORSDOF 6
ENDMDL
MODEL 3
REMARK VINA RESULT:      -7.3      4.453      8.187
REMARK  Name = ZINC000023126404 MCULE-3872663354
REMARK  6 active torsions:
REMARK  status: ('A' for Active; 'I' for Inactive)
REMARK    1  A    between atoms: C_4  and  S_25
REMARK    2  A    between atoms: C_10  and  C_16
REMARK    3  A    between atoms: N_18  and  C_20
REMARK    4  A    between atoms: S_25  and  C_26
REMARK    5  A    between atoms: C_26  and  C_27
REMARK    6  A    between atoms: N_29  and  C_31
REMARK                            x       y       z     vdW  Elec       q    Type
REMARK                         _______ _______ _______ _____ _____    ______ ____
ROOT
ATOM      1  C   UNL     1     -47.136  -4.566 -27.177  0.00  0.00    +0.000 A 
ATOM      2  N   UNL     1     -47.549  -3.487 -27.870  0.00  0.00    +0.000 NA
ATOM      3  N   UNL     1     -47.511  -3.836 -29.151  0.00  0.00    +0.000 NA
ATOM      4  C   UNL     1     -47.080  -5.115 -29.212  0.00  0.00    +0.000 A 
ATOM      5  N   UNL     1     -46.838  -5.599 -27.975  0.00  0.00    +0.000 N 
ATOM      6  C   UNL     1     -46.406  -6.795 -27.493  0.00  0.00    +0.000 A 
ATOM      7  C   UNL     1     -46.254  -6.925 -26.094  0.00  0.00    +0.000 A 
ATOM      8  C   UNL     1     -45.808  -8.141 -25.558  0.00  0.00    +0.000 A 
ATOM      9  C   UNL     1     -45.528  -9.220 -26.402  0.00  0.00    +0.000 A 
ATOM     10  C   UNL     1     -45.692  -9.101 -27.789  0.00  0.00    +0.000 A 
ATOM     11  C   UNL     1     -46.130  -7.884 -28.328  0.00  0.00    +0.000 A 
ATOM     12  C   UNL     1     -46.564  -5.818 -25.268  0.00  0.00    +0.000 A 
ATOM     13  O   UNL     1     -46.432  -5.913 -24.015  0.00  0.00    +0.000 OA
ATOM     14  N   UNL     1     -47.008  -4.645 -25.825  0.00  0.00    +0.000 N 
ATOM     15  C   UNL     1     -47.335  -3.496 -24.989  0.00  0.00    +0.000 C 
ENDROOT
BRANCH  10  16
ATOM     16  C   UNL     1     -45.422 -10.248 -28.672  0.00  0.00    +0.000 C 
ATOM     17  O   UNL     1     -45.786 -10.214 -29.880  0.00  0.00    +0.000 OA
ATOM     18  N   UNL     1     -44.730 -11.395 -28.166  0.00  0.00    +0.000 N 
ATOM     19  H   UNL     1     -44.428 -11.390 -27.229  0.00  0.00    +0.000 HD
BRANCH  18  20
ATOM     20  C   UNL     1     -44.457 -12.566 -28.984  0.00  0.00    +0.000 C 
ATOM     21  C   UNL     1     -45.509 -13.635 -28.732  0.00  0.00    +0.000 C 
ATOM     22  C   UNL     1     -44.796 -14.793 -28.067  0.00  0.00    +0.000 C 
ATOM     23  C   UNL     1     -43.346 -14.649 -28.458  0.00  0.00    +0.000 C 
ATOM     24  C   UNL     1     -43.120 -13.161 -28.586  0.00  0.00    +0.000 C 
ENDBRANCH  18  20
ENDBRANCH  10  16
BRANCH   4  25
ATOM     25  S   UNL     1     -46.812  -5.987 -30.754  0.00  0.00    +0.000 S 
BRANCH  25  26
ATOM     26  C   UNL     1     -47.477  -4.611 -31.746  0.00  0.00    +0.000 C 
BRANCH  26  27
ATOM     27  C   UNL     1     -46.402  -3.746 -32.327  0.00  0.00    +0.000 C 
ATOM     28  O   UNL     1     -46.360  -3.599 -33.576  0.00  0.00    +0.000 OA
ATOM     29  N   UNL     1     -45.453  -3.082 -31.477  0.00  0.00    +0.000 N 
ATOM     30  H   UNL     1     -45.587  -3.179 -30.507  0.00  0.00    +0.000 HD
BRANCH  29  31
ATOM     31  C   UNL     1     -44.332  -2.292 -31.894  0.00  0.00    +0.000 A 
ATOM     32  C   UNL     1     -43.102  -2.927 -32.101  0.00  0.00    +0.000 A 
ATOM     33  C   UNL     1     -41.992  -2.195 -32.532  0.00  0.00    +0.000 A 
ATOM     34  C   UNL     1     -42.107  -0.821 -32.762  0.00  0.00    +0.000 A 
ATOM     35  C   UNL     1     -43.332  -0.179 -32.559  0.00  0.00    +0.000 A 
ATOM     36  C   UNL     1     -44.440  -0.912 -32.127  0.00  0.00    +0.000 A 
ATOM     37  F   UNL     1     -41.032  -0.112 -33.183  0.00  0.00    +0.000 F 
ENDBRANCH  29  31
ENDBRANCH  26  27
ENDBRANCH  25  26
ENDBRANCH   4  25
TORSDOF 6
ENDMDL
