MODEL 1
REMARK VINA RESULT:      -6.0      0.000      0.000
REMARK  Name = ZINC000003831424 ZINC03831424 PubChem-6328150
REMARK  9 active torsions:
REMARK  status: ('A' for Active; 'I' for Inactive)
REMARK    1  A    between atoms: N_9  and  C_20
REMARK    2  A    between atoms: C_20  and  C_21
REMARK    3  A    between atoms: C_21  and  O_22
REMARK    4  A    between atoms: C_21  and  C_24
REMARK    5  A    between atoms: C_24  and  O_25
REMARK    6  A    between atoms: C_24  and  C_27
REMARK    7  A    between atoms: C_27  and  O_28
REMARK    8  A    between atoms: C_27  and  C_30
REMARK    9  A    between atoms: C_30  and  O_31
REMARK                            x       y       z     vdW  Elec       q    Type
REMARK                         _______ _______ _______ _____ _____    ______ ____
ROOT
ATOM      1  C   UNL     1     -47.155 -13.771 -20.419  0.00  0.00    +0.000 C 
ATOM      2  C   UNL     1     -46.429 -15.072 -20.478  0.00  0.00    +0.000 A 
ATOM      3  C   UNL     1     -45.927 -15.503 -21.707  0.00  0.00    +0.000 A 
ATOM      4  C   UNL     1     -45.238 -16.715 -21.808  0.00  0.00    +0.000 A 
ATOM      5  C   UNL     1     -45.034 -17.519 -20.654  0.00  0.00    +0.000 A 
ATOM      6  C   UNL     1     -45.558 -17.077 -19.429  0.00  0.00    +0.000 A 
ATOM      7  C   UNL     1     -46.247 -15.866 -19.333  0.00  0.00    +0.000 A 
ATOM      8  C   UNL     1     -46.773 -15.446 -18.001  0.00  0.00    +0.000 C 
ATOM      9  N   UNL     1     -44.350 -18.708 -20.749  0.00  0.00    +0.000 N 
ATOM     10  C   UNL     1     -43.910 -19.139 -21.969  0.00  0.00    +0.000 A 
ATOM     11  N   UNL     1     -43.277 -20.333 -22.125  0.00  0.00    +0.000 NA
ATOM     12  C   UNL     1     -42.841 -20.741 -23.347  0.00  0.00    +0.000 A 
ATOM     13  O   UNL     1     -42.256 -21.849 -23.461  0.00  0.00    +0.000 OA
ATOM     14  N   UNL     1     -43.030 -19.962 -24.448  0.00  0.00    +0.000 N 
ATOM     15  C   UNL     1     -43.658 -18.757 -24.382  0.00  0.00    +0.000 A 
ATOM     16  O   UNL     1     -43.814 -18.076 -25.429  0.00  0.00    +0.000 OA
ATOM     17  C   UNL     1     -44.127 -18.296 -23.155  0.00  0.00    +0.000 A 
ATOM     18  N   UNL     1     -44.780 -17.118 -23.021  0.00  0.00    +0.000 NA
ATOM     19  H   UNL     1     -42.702 -20.280 -25.319  0.00  0.00    +0.000 HD
ENDROOT
BRANCH   9  20
ATOM     20  C   UNL     1     -44.107 -19.537 -19.559  0.00  0.00    +0.000 C 
BRANCH  20  21
ATOM     21  C   UNL     1     -42.645 -19.484 -19.092  0.00  0.00    +0.000 C 
BRANCH  21  22
ATOM     22  O   UNL     1     -42.388 -18.291 -18.413  0.00  0.00    +0.000 OA
ATOM     23  H   UNL     1     -43.124 -17.674 -18.553  0.00  0.00    +0.000 HD
ENDBRANCH  21  22
BRANCH  21  24
ATOM     24  C   UNL     1     -42.268 -20.692 -18.235  0.00  0.00    +0.000 C 
BRANCH  24  25
ATOM     25  O   UNL     1     -43.252 -21.679 -18.342  0.00  0.00    +0.000 OA
ATOM     26  H   UNL     1     -42.846 -22.512 -18.631  0.00  0.00    +0.000 HD
ENDBRANCH  24  25
BRANCH  24  27
ATOM     27  C   UNL     1     -40.908 -21.262 -18.636  0.00  0.00    +0.000 C 
BRANCH  27  28
ATOM     28  O   UNL     1     -40.226 -20.370 -19.468  0.00  0.00    +0.000 OA
ATOM     29  H   UNL     1     -39.745 -20.866 -20.149  0.00  0.00    +0.000 HD
ENDBRANCH  27  28
BRANCH  27  30
ATOM     30  C   UNL     1     -41.084 -22.597 -19.337  0.00  0.00    +0.000 C 
BRANCH  30  31
ATOM     31  O   UNL     1     -41.761 -22.414 -20.543  0.00  0.00    +0.000 OA
ATOM     32  H   UNL     1     -42.711 -22.332 -20.371  0.00  0.00    +0.000 HD
ENDBRANCH  30  31
ENDBRANCH  27  30
ENDBRANCH  24  27
ENDBRANCH  21  24
ENDBRANCH  20  21
ENDBRANCH   9  20
TORSDOF 9
ENDMDL
MODEL 2
REMARK VINA RESULT:      -5.7      2.324      4.971
REMARK  Name = ZINC000003831424 ZINC03831424 PubChem-6328150
REMARK  9 active torsions:
REMARK  status: ('A' for Active; 'I' for Inactive)
REMARK    1  A    between atoms: N_9  and  C_20
REMARK    2  A    between atoms: C_20  and  C_21
REMARK    3  A    between atoms: C_21  and  O_22
REMARK    4  A    between atoms: C_21  and  C_24
REMARK    5  A    between atoms: C_24  and  O_25
REMARK    6  A    between atoms: C_24  and  C_27
REMARK    7  A    between atoms: C_27  and  O_28
REMARK    8  A    between atoms: C_27  and  C_30
REMARK    9  A    between atoms: C_30  and  O_31
REMARK                            x       y       z     vdW  Elec       q    Type
REMARK                         _______ _______ _______ _____ _____    ______ ____
ROOT
ATOM      1  C   UNL     1     -44.099 -18.726 -25.913  0.00  0.00    +0.000 C 
ATOM      2  C   UNL     1     -44.358 -18.507 -24.461  0.00  0.00    +0.000 A 
ATOM      3  C   UNL     1     -44.952 -17.309 -24.059  0.00  0.00    +0.000 A 
ATOM      4  C   UNL     1     -45.216 -17.063 -22.709  0.00  0.00    +0.000 A 
ATOM      5  C   UNL     1     -44.887 -18.037 -21.728  0.00  0.00    +0.000 A 
ATOM      6  C   UNL     1     -44.277 -19.230 -22.148  0.00  0.00    +0.000 A 
ATOM      7  C   UNL     1     -44.014 -19.472 -23.498  0.00  0.00    +0.000 A 
ATOM      8  C   UNL     1     -43.372 -20.763 -23.882  0.00  0.00    +0.000 C 
ATOM      9  N   UNL     1     -45.152 -17.802 -20.400  0.00  0.00    +0.000 N 
ATOM     10  C   UNL     1     -45.687 -16.603 -20.020  0.00  0.00    +0.000 A 
ATOM     11  N   UNL     1     -45.916 -16.299 -18.715  0.00  0.00    +0.000 NA
ATOM     12  C   UNL     1     -46.456 -15.102 -18.357  0.00  0.00    +0.000 A 
ATOM     13  O   UNL     1     -46.661 -14.849 -17.142  0.00  0.00    +0.000 OA
ATOM     14  N   UNL     1     -46.778 -14.176 -19.302  0.00  0.00    +0.000 N 
ATOM     15  C   UNL     1     -46.576 -14.396 -20.629  0.00  0.00    +0.000 A 
ATOM     16  O   UNL     1     -46.885 -13.506 -21.465  0.00  0.00    +0.000 OA
ATOM     17  C   UNL     1     -46.023 -15.604 -21.047  0.00  0.00    +0.000 A 
ATOM     18  N   UNL     1     -45.775 -15.880 -22.348  0.00  0.00    +0.000 NA
ATOM     19  H   UNL     1     -47.170 -13.319 -19.016  0.00  0.00    +0.000 HD
ENDROOT
BRANCH   9  20
ATOM     20  C   UNL     1     -44.843 -18.812 -19.376  0.00  0.00    +0.000 C 
BRANCH  20  21
ATOM     21  C   UNL     1     -43.371 -18.777 -18.941  0.00  0.00    +0.000 C 
BRANCH  21  22
ATOM     22  O   UNL     1     -43.132 -17.693 -18.094  0.00  0.00    +0.000 OA
ATOM     23  H   UNL     1     -43.709 -17.759 -17.316  0.00  0.00    +0.000 HD
ENDBRANCH  21  22
BRANCH  21  24
ATOM     24  C   UNL     1     -42.930 -20.087 -18.288  0.00  0.00    +0.000 C 
BRANCH  24  25
ATOM     25  O   UNL     1     -43.999 -20.988 -18.260  0.00  0.00    +0.000 OA
ATOM     26  H   UNL     1     -43.661 -21.895 -18.342  0.00  0.00    +0.000 HD
ENDBRANCH  24  25
BRANCH  24  27
ATOM     27  C   UNL     1     -41.741 -20.707 -19.020  0.00  0.00    +0.000 C 
BRANCH  27  28
ATOM     28  O   UNL     1     -42.162 -21.343 -20.191  0.00  0.00    +0.000 OA
ATOM     29  H   UNL     1     -42.204 -22.301 -20.042  0.00  0.00    +0.000 HD
ENDBRANCH  27  28
BRANCH  27  30
ATOM     30  C   UNL     1     -41.027 -21.697 -18.118  0.00  0.00    +0.000 C 
BRANCH  30  31
ATOM     31  O   UNL     1     -41.621 -21.704 -16.856  0.00  0.00    +0.000 OA
ATOM     32  H   UNL     1     -41.686 -20.796 -16.524  0.00  0.00    +0.000 HD
ENDBRANCH  30  31
ENDBRANCH  27  30
ENDBRANCH  24  27
ENDBRANCH  21  24
ENDBRANCH  20  21
ENDBRANCH   9  20
TORSDOF 9
ENDMDL
MODEL 3
REMARK VINA RESULT:      -5.7     11.734     14.393
REMARK  Name = ZINC000003831424 ZINC03831424 PubChem-6328150
REMARK  9 active torsions:
REMARK  status: ('A' for Active; 'I' for Inactive)
REMARK    1  A    between atoms: N_9  and  C_20
REMARK    2  A    between atoms: C_20  and  C_21
REMARK    3  A    between atoms: C_21  and  O_22
REMARK    4  A    between atoms: C_21  and  C_24
REMARK    5  A    between atoms: C_24  and  O_25
REMARK    6  A    between atoms: C_24  and  C_27
REMARK    7  A    between atoms: C_27  and  O_28
REMARK    8  A    between atoms: C_27  and  C_30
REMARK    9  A    between atoms: C_30  and  O_31
REMARK                            x       y       z     vdW  Elec       q    Type
REMARK                         _______ _______ _______ _____ _____    ______ ____
ROOT
ATOM      1  C   UNL     1     -47.468  -1.607 -24.130  0.00  0.00    +0.000 C 
ATOM      2  C   UNL     1     -47.287  -2.876 -24.891  0.00  0.00    +0.000 A 
ATOM      3  C   UNL     1     -47.347  -2.835 -26.286  0.00  0.00    +0.000 A 
ATOM      4  C   UNL     1     -47.179  -4.000 -27.040  0.00  0.00    +0.000 A 
ATOM      5  C   UNL     1     -46.937  -5.241 -26.392  0.00  0.00    +0.000 A 
ATOM      6  C   UNL     1     -46.894  -5.267 -24.989  0.00  0.00    +0.000 A 
ATOM      7  C   UNL     1     -47.064  -4.101 -24.239  0.00  0.00    +0.000 A 
ATOM      8  C   UNL     1     -46.999  -4.192 -22.751  0.00  0.00    +0.000 C 
ATOM      9  N   UNL     1     -46.765  -6.388 -27.131  0.00  0.00    +0.000 N 
ATOM     10  C   UNL     1     -46.878  -6.338 -28.492  0.00  0.00    +0.000 A 
ATOM     11  N   UNL     1     -46.771  -7.452 -29.264  0.00  0.00    +0.000 NA
ATOM     12  C   UNL     1     -46.880  -7.380 -30.618  0.00  0.00    +0.000 A 
ATOM     13  O   UNL     1     -46.773  -8.427 -31.308  0.00  0.00    +0.000 OA
ATOM     14  N   UNL     1     -47.102  -6.186 -31.235  0.00  0.00    +0.000 N 
ATOM     15  C   UNL     1     -47.227  -5.025 -30.538  0.00  0.00    +0.000 A 
ATOM     16  O   UNL     1     -47.437  -3.946 -31.153  0.00  0.00    +0.000 OA
ATOM     17  C   UNL     1     -47.127  -5.045 -29.149  0.00  0.00    +0.000 A 
ATOM     18  N   UNL     1     -47.264  -3.932 -28.393  0.00  0.00    +0.000 NA
ATOM     19  H   UNL     1     -47.173  -6.162 -32.216  0.00  0.00    +0.000 HD
ENDROOT
BRANCH   9  20
ATOM     20  C   UNL     1     -46.487  -7.675 -26.476  0.00  0.00    +0.000 C 
BRANCH  20  21
ATOM     21  C   UNL     1     -45.077  -8.199 -26.783  0.00  0.00    +0.000 C 
BRANCH  21  22
ATOM     22  O   UNL     1     -44.134  -7.591 -25.951  0.00  0.00    +0.000 OA
ATOM     23  H   UNL     1     -43.351  -8.161 -25.879  0.00  0.00    +0.000 HD
ENDBRANCH  21  22
BRANCH  21  24
ATOM     24  C   UNL     1     -44.991  -9.722 -26.681  0.00  0.00    +0.000 C 
BRANCH  24  25
ATOM     25  O   UNL     1     -46.107 -10.217 -25.999  0.00  0.00    +0.000 OA
ATOM     26  H   UNL     1     -45.867 -11.036 -25.536  0.00  0.00    +0.000 HD
ENDBRANCH  24  25
BRANCH  24  27
ATOM     27  C   UNL     1     -44.889 -10.371 -28.060  0.00  0.00    +0.000 C 
BRANCH  27  28
ATOM     28  O   UNL     1     -44.684  -9.403 -29.047  0.00  0.00    +0.000 OA
ATOM     29  H   UNL     1     -43.850  -8.938 -28.875  0.00  0.00    +0.000 HD
ENDBRANCH  27  28
BRANCH  27  30
ATOM     30  C   UNL     1     -46.148 -11.164 -28.362  0.00  0.00    +0.000 C 
BRANCH  30  31
ATOM     31  O   UNL     1     -47.155 -10.305 -28.805  0.00  0.00    +0.000 OA
ATOM     32  H   UNL     1     -47.149  -9.497 -28.269  0.00  0.00    +0.000 HD
ENDBRANCH  30  31
ENDBRANCH  27  30
ENDBRANCH  24  27
ENDBRANCH  21  24
ENDBRANCH  20  21
ENDBRANCH   9  20
TORSDOF 9
ENDMDL
