MODEL 1
REMARK VINA RESULT:      -6.2      0.000      0.000
REMARK  Name = ZINC000005011747 PubChem-92247271
REMARK  9 active torsions:
REMARK  status: ('A' for Active; 'I' for Inactive)
REMARK    1  A    between atoms: N_18  and  C_21
REMARK    2  A    between atoms: C_21  and  C_22
REMARK    3  A    between atoms: C_22  and  O_23
REMARK    4  A    between atoms: C_22  and  C_25
REMARK    5  A    between atoms: C_25  and  O_26
REMARK    6  A    between atoms: C_25  and  C_28
REMARK    7  A    between atoms: C_28  and  O_29
REMARK    8  A    between atoms: C_28  and  C_31
REMARK    9  A    between atoms: C_31  and  O_32
REMARK                            x       y       z     vdW  Elec       q    Type
REMARK                         _______ _______ _______ _____ _____    ______ ____
ROOT
ATOM      1  C   UNL     1     -47.651  -1.597 -25.806  0.00  0.00    +0.000 C 
ATOM      2  C   UNL     1     -47.382  -3.055 -25.971  0.00  0.00    +0.000 A 
ATOM      3  C   UNL     1     -47.337  -3.586 -27.260  0.00  0.00    +0.000 A 
ATOM      4  C   UNL     1     -47.091  -4.954 -27.477  0.00  0.00    +0.000 A 
ATOM      5  C   UNL     1     -46.878  -5.799 -26.355  0.00  0.00    +0.000 A 
ATOM      6  C   UNL     1     -46.925  -5.252 -25.063  0.00  0.00    +0.000 A 
ATOM      7  C   UNL     1     -47.174  -3.893 -24.864  0.00  0.00    +0.000 A 
ATOM      8  C   UNL     1     -47.213  -3.369 -23.469  0.00  0.00    +0.000 C 
ATOM      9  N   UNL     1     -46.631  -7.132 -26.522  0.00  0.00    +0.000 N 
ATOM     10  C   UNL     1     -46.583  -7.671 -27.776  0.00  0.00    +0.000 A 
ATOM     11  C   UNL     1     -46.328  -9.030 -28.038  0.00  0.00    +0.000 A 
ATOM     12  O   UNL     1     -46.128  -9.852 -27.104  0.00  0.00    +0.000 OA
ATOM     13  N   UNL     1     -46.296  -9.473 -29.323  0.00  0.00    +0.000 N 
ATOM     14  C   UNL     1     -46.502  -8.647 -30.382  0.00  0.00    +0.000 A 
ATOM     15  O   UNL     1     -46.460  -9.110 -31.551  0.00  0.00    +0.000 OA
ATOM     16  N   UNL     1     -46.754  -7.327 -30.190  0.00  0.00    +0.000 NA
ATOM     17  C   UNL     1     -46.807  -6.794 -28.942  0.00  0.00    +0.000 A 
ATOM     18  N   UNL     1     -47.068  -5.468 -28.748  0.00  0.00    +0.000 N 
ATOM     19  O   UNL     1     -46.431  -7.923 -25.410  0.00  0.00    +0.000 OA
ATOM     20  H   UNL     1     -46.116 -10.425 -29.491  0.00  0.00    +0.000 HD
ENDROOT
BRANCH  18  21
ATOM     21  C   UNL     1     -47.310  -4.596 -29.904  0.00  0.00    +0.000 C 
BRANCH  21  22
ATOM     22  C   UNL     1     -46.011  -4.019 -30.464  0.00  0.00    +0.000 C 
BRANCH  22  23
ATOM     23  O   UNL     1     -46.122  -2.628 -30.492  0.00  0.00    +0.000 OA
ATOM     24  H   UNL     1     -45.259  -2.230 -30.301  0.00  0.00    +0.000 HD
ENDBRANCH  22  23
BRANCH  22  25
ATOM     25  C   UNL     1     -45.715  -4.555 -31.869  0.00  0.00    +0.000 C 
BRANCH  25  26
ATOM     26  O   UNL     1     -44.828  -5.634 -31.806  0.00  0.00    +0.000 OA
ATOM     27  H   UNL     1     -43.935  -5.333 -32.034  0.00  0.00    +0.000 HD
ENDBRANCH  25  26
BRANCH  25  28
ATOM     28  C   UNL     1     -47.007  -4.980 -32.571  0.00  0.00    +0.000 C 
BRANCH  28  29
ATOM     29  O   UNL     1     -46.929  -6.297 -33.031  0.00  0.00    +0.000 OA
ATOM     30  H   UNL     1     -46.004  -6.517 -33.223  0.00  0.00    +0.000 HD
ENDBRANCH  28  29
BRANCH  28  31
ATOM     31  C   UNL     1     -47.381  -4.033 -33.706  0.00  0.00    +0.000 C 
BRANCH  31  32
ATOM     32  O   UNL     1     -47.008  -2.722 -33.404  0.00  0.00    +0.000 OA
ATOM     33  H   UNL     1     -47.523  -2.106 -33.946  0.00  0.00    +0.000 HD
ENDBRANCH  31  32
ENDBRANCH  28  31
ENDBRANCH  25  28
ENDBRANCH  22  25
ENDBRANCH  21  22
ENDBRANCH  18  21
TORSDOF 9
ENDMDL
MODEL 2
REMARK VINA RESULT:      -6.0      3.091      6.615
REMARK  Name = ZINC000005011747 PubChem-92247271
REMARK  9 active torsions:
REMARK  status: ('A' for Active; 'I' for Inactive)
REMARK    1  A    between atoms: N_18  and  C_21
REMARK    2  A    between atoms: C_21  and  C_22
REMARK    3  A    between atoms: C_22  and  O_23
REMARK    4  A    between atoms: C_22  and  C_25
REMARK    5  A    between atoms: C_25  and  O_26
REMARK    6  A    between atoms: C_25  and  C_28
REMARK    7  A    between atoms: C_28  and  O_29
REMARK    8  A    between atoms: C_28  and  C_31
REMARK    9  A    between atoms: C_31  and  O_32
REMARK                            x       y       z     vdW  Elec       q    Type
REMARK                         _______ _______ _______ _____ _____    ______ ____
ROOT
ATOM      1  C   UNL     1     -45.416  -7.103 -37.133  0.00  0.00    +0.000 C 
ATOM      2  C   UNL     1     -45.796  -7.359 -35.714  0.00  0.00    +0.000 A 
ATOM      3  C   UNL     1     -45.887  -6.275 -34.839  0.00  0.00    +0.000 A 
ATOM      4  C   UNL     1     -46.238  -6.455 -33.489  0.00  0.00    +0.000 A 
ATOM      5  C   UNL     1     -46.509  -7.769 -33.020  0.00  0.00    +0.000 A 
ATOM      6  C   UNL     1     -46.414  -8.851 -33.910  0.00  0.00    +0.000 A 
ATOM      7  C   UNL     1     -46.062  -8.655 -35.246  0.00  0.00    +0.000 A 
ATOM      8  C   UNL     1     -45.976  -9.842 -36.145  0.00  0.00    +0.000 C 
ATOM      9  N   UNL     1     -46.857  -7.987 -31.717  0.00  0.00    +0.000 N 
ATOM     10  C   UNL     1     -46.952  -6.940 -30.846  0.00  0.00    +0.000 A 
ATOM     11  C   UNL     1     -47.311  -7.074 -29.492  0.00  0.00    +0.000 A 
ATOM     12  O   UNL     1     -47.568  -8.201 -28.991  0.00  0.00    +0.000 OA
ATOM     13  N   UNL     1     -47.383  -5.970 -28.703  0.00  0.00    +0.000 N 
ATOM     14  C   UNL     1     -47.121  -4.722 -29.171  0.00  0.00    +0.000 A 
ATOM     15  O   UNL     1     -47.204  -3.734 -28.396  0.00  0.00    +0.000 OA
ATOM     16  N   UNL     1     -46.768  -4.531 -30.469  0.00  0.00    +0.000 NA
ATOM     17  C   UNL     1     -46.668  -5.575 -31.332  0.00  0.00    +0.000 A 
ATOM     18  N   UNL     1     -46.306  -5.385 -32.635  0.00  0.00    +0.000 N 
ATOM     19  O   UNL     1     -47.111  -9.276 -31.296  0.00  0.00    +0.000 OA
ATOM     20  H   UNL     1     -47.635  -6.079 -27.758  0.00  0.00    +0.000 HD
ENDROOT
BRANCH  18  21
ATOM     21  C   UNL     1     -46.004  -4.032 -33.117  0.00  0.00    +0.000 C 
BRANCH  21  22
ATOM     22  C   UNL     1     -44.666  -3.523 -32.582  0.00  0.00    +0.000 C 
BRANCH  22  23
ATOM     23  O   UNL     1     -44.920  -2.588 -31.577  0.00  0.00    +0.000 OA
ATOM     24  H   UNL     1     -44.196  -1.943 -31.544  0.00  0.00    +0.000 HD
ENDBRANCH  22  23
BRANCH  22  25
ATOM     25  C   UNL     1     -43.820  -2.889 -33.692  0.00  0.00    +0.000 C 
BRANCH  25  26
ATOM     26  O   UNL     1     -44.472  -1.774 -34.229  0.00  0.00    +0.000 OA
ATOM     27  H   UNL     1     -43.877  -1.009 -34.206  0.00  0.00    +0.000 HD
ENDBRANCH  25  26
BRANCH  25  28
ATOM     28  C   UNL     1     -42.443  -2.484 -33.161  0.00  0.00    +0.000 C 
BRANCH  28  29
ATOM     29  O   UNL     1     -42.174  -3.083 -31.928  0.00  0.00    +0.000 OA
ATOM     30  H   UNL     1     -41.482  -3.754 -32.039  0.00  0.00    +0.000 HD
ENDBRANCH  28  29
BRANCH  28  31
ATOM     31  C   UNL     1     -42.286  -0.970 -33.072  0.00  0.00    +0.000 C 
BRANCH  31  32
ATOM     32  O   UNL     1     -42.992  -0.460 -31.980  0.00  0.00    +0.000 OA
ATOM     33  H   UNL     1     -42.548  -0.719 -31.158  0.00  0.00    +0.000 HD
ENDBRANCH  31  32
ENDBRANCH  28  31
ENDBRANCH  25  28
ENDBRANCH  22  25
ENDBRANCH  21  22
ENDBRANCH  18  21
TORSDOF 9
ENDMDL
MODEL 3
REMARK VINA RESULT:      -5.9      1.634      2.303
REMARK  Name = ZINC000005011747 PubChem-92247271
REMARK  9 active torsions:
REMARK  status: ('A' for Active; 'I' for Inactive)
REMARK    1  A    between atoms: N_18  and  C_21
REMARK    2  A    between atoms: C_21  and  C_22
REMARK    3  A    between atoms: C_22  and  O_23
REMARK    4  A    between atoms: C_22  and  C_25
REMARK    5  A    between atoms: C_25  and  O_26
REMARK    6  A    between atoms: C_25  and  C_28
REMARK    7  A    between atoms: C_28  and  O_29
REMARK    8  A    between atoms: C_28  and  C_31
REMARK    9  A    between atoms: C_31  and  O_32
REMARK                            x       y       z     vdW  Elec       q    Type
REMARK                         _______ _______ _______ _____ _____    ______ ____
ROOT
ATOM      1  C   UNL     1     -47.374  -3.005 -26.078  0.00  0.00    +0.000 C 
ATOM      2  C   UNL     1     -47.111  -4.339 -26.692  0.00  0.00    +0.000 A 
ATOM      3  C   UNL     1     -47.187  -4.465 -28.079  0.00  0.00    +0.000 A 
ATOM      4  C   UNL     1     -46.953  -5.698 -28.714  0.00  0.00    +0.000 A 
ATOM      5  C   UNL     1     -46.626  -6.828 -27.916  0.00  0.00    +0.000 A 
ATOM      6  C   UNL     1     -46.552  -6.688 -26.522  0.00  0.00    +0.000 A 
ATOM      7  C   UNL     1     -46.791  -5.458 -25.907  0.00  0.00    +0.000 A 
ATOM      8  C   UNL     1     -46.698  -5.370 -24.421  0.00  0.00    +0.000 C 
ATOM      9  N   UNL     1     -46.388  -8.043 -28.493  0.00  0.00    +0.000 N 
ATOM     10  C   UNL     1     -46.457  -8.187 -29.850  0.00  0.00    +0.000 A 
ATOM     11  C   UNL     1     -46.219  -9.398 -30.524  0.00  0.00    +0.000 A 
ATOM     12  O   UNL     1     -45.923 -10.450 -29.899  0.00  0.00    +0.000 OA
ATOM     13  N   UNL     1     -46.307  -9.441 -31.880  0.00  0.00    +0.000 N 
ATOM     14  C   UNL     1     -46.620  -8.348 -32.624  0.00  0.00    +0.000 A 
ATOM     15  O   UNL     1     -46.688  -8.444 -33.877  0.00  0.00    +0.000 OA
ATOM     16  N   UNL     1     -46.862  -7.153 -32.027  0.00  0.00    +0.000 NA
ATOM     17  C   UNL     1     -46.799  -7.013 -30.677  0.00  0.00    +0.000 A 
ATOM     18  N   UNL     1     -47.049  -5.814 -30.076  0.00  0.00    +0.000 N 
ATOM     19  O   UNL     1     -46.075  -9.119 -27.689  0.00  0.00    +0.000 OA
ATOM     20  H   UNL     1     -46.138 -10.295 -32.339  0.00  0.00    +0.000 HD
ENDROOT
BRANCH  18  21
ATOM     21  C   UNL     1     -47.408  -4.649 -30.895  0.00  0.00    +0.000 C 
BRANCH  21  22
ATOM     22  C   UNL     1     -46.177  -3.844 -31.311  0.00  0.00    +0.000 C 
BRANCH  22  23
ATOM     23  O   UNL     1     -46.268  -2.574 -30.738  0.00  0.00    +0.000 OA
ATOM     24  H   UNL     1     -45.790  -2.565 -29.894  0.00  0.00    +0.000 HD
ENDBRANCH  22  23
BRANCH  22  25
ATOM     25  C   UNL     1     -46.067  -3.730 -32.834  0.00  0.00    +0.000 C 
BRANCH  25  26
ATOM     26  O   UNL     1     -46.968  -2.778 -33.322  0.00  0.00    +0.000 OA
ATOM     27  H   UNL     1     -47.028  -2.039 -32.697  0.00  0.00    +0.000 HD
ENDBRANCH  25  26
BRANCH  25  28
ATOM     28  C   UNL     1     -44.640  -3.361 -33.250  0.00  0.00    +0.000 C 
BRANCH  28  29
ATOM     29  O   UNL     1     -43.730  -3.597 -32.217  0.00  0.00    +0.000 OA
ATOM     30  H   UNL     1     -42.999  -2.963 -32.280  0.00  0.00    +0.000 HD
ENDBRANCH  28  29
BRANCH  28  31
ATOM     31  C   UNL     1     -44.542  -1.920 -33.738  0.00  0.00    +0.000 C 
BRANCH  31  32
ATOM     32  O   UNL     1     -44.598  -1.026 -32.667  0.00  0.00    +0.000 OA
ATOM     33  H   UNL     1     -45.020  -0.202 -32.956  0.00  0.00    +0.000 HD
ENDBRANCH  31  32
ENDBRANCH  28  31
ENDBRANCH  25  28
ENDBRANCH  22  25
ENDBRANCH  21  22
ENDBRANCH  18  21
TORSDOF 9
ENDMDL
