MODEL 1
REMARK VINA RESULT:      -6.7      0.000      0.000
REMARK  Name = ZINC000018200763
REMARK  2 active torsions:
REMARK  status: ('A' for Active; 'I' for Inactive)
REMARK    1  A    between atoms: C_14  and  O_15
REMARK    2  A    between atoms: C_17  and  C_21
REMARK                            x       y       z     vdW  Elec       q    Type
REMARK                         _______ _______ _______ _____ _____    ______ ____
ROOT
ATOM      1  C   UNL     1     -44.004  -9.957 -32.271  0.00  0.00    +0.000 C 
ATOM      2  C   UNL     1     -45.459 -10.070 -32.700  0.00  0.00    +0.000 C 
ATOM      3  C   UNL     1     -45.685 -11.460 -33.253  0.00  0.00    +0.000 C 
ATOM      4  C   UNL     1     -45.762  -9.052 -33.801  0.00  0.00    +0.000 C 
ATOM      5  C   UNL     1     -45.962  -7.659 -33.276  0.00  0.00    +0.000 C 
ATOM      6  O   UNL     1     -45.971  -6.702 -34.095  0.00  0.00    +0.000 OA
ATOM      7  C   UNL     1     -46.170  -7.402 -31.830  0.00  0.00    +0.000 C 
ATOM      8  C   UNL     1     -46.356  -8.454 -30.982  0.00  0.00    +0.000 C 
ATOM      9  C   UNL     1     -46.385  -9.866 -31.500  0.00  0.00    +0.000 C 
ATOM     10  N   UNL     1     -46.646  -8.249 -29.587  0.00  0.00    +0.000 N 
ATOM     11  C   UNL     1     -46.761  -6.918 -29.104  0.00  0.00    +0.000 A 
ATOM     12  N   UNL     1     -47.094  -6.545 -27.855  0.00  0.00    +0.000 N 
ATOM     13  N   UNL     1     -47.109  -5.215 -27.836  0.00  0.00    +0.000 NA
ATOM     14  C   UNL     1     -46.788  -4.773 -29.072  0.00  0.00    +0.000 A 
ATOM     15  C   UNL     1     -46.566  -5.843 -29.903  0.00  0.00    +0.000 A 
ATOM     16  C   UNL     1     -46.136  -5.950 -31.334  0.00  0.00    +0.000 C 
ATOM     17  H   UNL     1     -46.763  -9.015 -28.980  0.00  0.00    +0.000 HD
ATOM     18  H   UNL     1     -47.289  -7.144 -27.098  0.00  0.00    +0.000 HD
ENDROOT
BRANCH  16  19
ATOM     19  C   UNL     1     -44.772  -5.335 -31.522  0.00  0.00    +0.000 A 
ATOM     20  C   UNL     1     -43.642  -5.958 -30.975  0.00  0.00    +0.000 A 
ATOM     21  C   UNL     1     -42.381  -5.383 -31.142  0.00  0.00    +0.000 A 
ATOM     22  N   UNL     1     -42.245  -4.220 -31.831  0.00  0.00    +0.000 NA
ATOM     23  C   UNL     1     -43.316  -3.583 -32.374  0.00  0.00    +0.000 A 
ATOM     24  C   UNL     1     -43.134  -2.387 -33.074  0.00  0.00    +0.000 A 
ATOM     25  C   UNL     1     -44.233  -1.727 -33.631  0.00  0.00    +0.000 A 
ATOM     26  C   UNL     1     -45.517  -2.260 -33.491  0.00  0.00    +0.000 A 
ATOM     27  C   UNL     1     -45.708  -3.456 -32.794  0.00  0.00    +0.000 A 
ATOM     28  C   UNL     1     -44.614  -4.129 -32.230  0.00  0.00    +0.000 A 
ENDBRANCH  16  19
BRANCH  14  29
ATOM     29  O   UNL     1     -46.694  -3.433 -29.421  0.00  0.00    +0.000 OA
ATOM     30  H   UNL     1     -45.854  -3.023 -29.487  0.00  0.00    +0.000 HD
ENDBRANCH  14  29
TORSDOF 2
ENDMDL
MODEL 2
REMARK VINA RESULT:      -6.7      2.395      5.944
REMARK  Name = ZINC000018200763
REMARK  2 active torsions:
REMARK  status: ('A' for Active; 'I' for Inactive)
REMARK    1  A    between atoms: C_14  and  O_15
REMARK    2  A    between atoms: C_17  and  C_21
REMARK                            x       y       z     vdW  Elec       q    Type
REMARK                         _______ _______ _______ _____ _____    ______ ____
ROOT
ATOM      1  C   UNL     1     -42.862  -2.416 -32.533  0.00  0.00    +0.000 C 
ATOM      2  C   UNL     1     -44.231  -1.793 -32.760  0.00  0.00    +0.000 C 
ATOM      3  C   UNL     1     -44.038  -0.458 -33.444  0.00  0.00    +0.000 C 
ATOM      4  C   UNL     1     -44.928  -1.557 -31.419  0.00  0.00    +0.000 C 
ATOM      5  C   UNL     1     -45.526  -2.807 -30.838  0.00  0.00    +0.000 C 
ATOM      6  O   UNL     1     -45.904  -2.792 -29.636  0.00  0.00    +0.000 OA
ATOM      7  C   UNL     1     -45.695  -4.033 -31.655  0.00  0.00    +0.000 C 
ATOM      8  C   UNL     1     -45.468  -3.980 -32.999  0.00  0.00    +0.000 C 
ATOM      9  C   UNL     1     -45.079  -2.688 -33.665  0.00  0.00    +0.000 C 
ATOM     10  N   UNL     1     -45.701  -5.122 -33.844  0.00  0.00    +0.000 N 
ATOM     11  C   UNL     1     -46.202  -6.313 -33.255  0.00  0.00    +0.000 A 
ATOM     12  N   UNL     1     -46.541  -7.444 -33.900  0.00  0.00    +0.000 N 
ATOM     13  N   UNL     1     -46.982  -8.299 -32.981  0.00  0.00    +0.000 NA
ATOM     14  C   UNL     1     -46.916  -7.693 -31.775  0.00  0.00    +0.000 A 
ATOM     15  C   UNL     1     -46.425  -6.419 -31.924  0.00  0.00    +0.000 A 
ATOM     16  C   UNL     1     -46.093  -5.334 -30.946  0.00  0.00    +0.000 C 
ATOM     17  H   UNL     1     -45.518  -5.077 -34.810  0.00  0.00    +0.000 HD
ATOM     18  H   UNL     1     -46.475  -7.607 -34.869  0.00  0.00    +0.000 HD
ENDROOT
BRANCH  16  19
ATOM     19  C   UNL     1     -45.019  -5.794 -29.993  0.00  0.00    +0.000 A 
ATOM     20  C   UNL     1     -43.711  -5.995 -30.457  0.00  0.00    +0.000 A 
ATOM     21  C   UNL     1     -42.718  -6.428 -29.576  0.00  0.00    +0.000 A 
ATOM     22  N   UNL     1     -43.016  -6.660 -28.270  0.00  0.00    +0.000 NA
ATOM     23  C   UNL     1     -44.272  -6.481 -27.783  0.00  0.00    +0.000 A 
ATOM     24  C   UNL     1     -44.538  -6.733 -26.434  0.00  0.00    +0.000 A 
ATOM     25  C   UNL     1     -45.828  -6.553 -25.928  0.00  0.00    +0.000 A 
ATOM     26  C   UNL     1     -46.858  -6.122 -26.768  0.00  0.00    +0.000 A 
ATOM     27  C   UNL     1     -46.601  -5.867 -28.118  0.00  0.00    +0.000 A 
ATOM     28  C   UNL     1     -45.310  -6.042 -28.639  0.00  0.00    +0.000 A 
ENDBRANCH  16  19
BRANCH  14  29
ATOM     29  O   UNL     1     -47.286  -8.293 -30.579  0.00  0.00    +0.000 OA
ATOM     30  H   UNL     1     -47.169  -7.836 -29.770  0.00  0.00    +0.000 HD
ENDBRANCH  14  29
TORSDOF 2
ENDMDL
MODEL 3
REMARK VINA RESULT:      -6.6     11.974     14.554
REMARK  Name = ZINC000018200763
REMARK  2 active torsions:
REMARK  status: ('A' for Active; 'I' for Inactive)
REMARK    1  A    between atoms: C_14  and  O_15
REMARK    2  A    between atoms: C_17  and  C_21
REMARK                            x       y       z     vdW  Elec       q    Type
REMARK                         _______ _______ _______ _____ _____    ______ ____
ROOT
ATOM      1  C   UNL     1     -43.567 -14.228 -25.943  0.00  0.00    +0.000 C 
ATOM      2  C   UNL     1     -44.818 -14.945 -26.425  0.00  0.00    +0.000 C 
ATOM      3  C   UNL     1     -45.155 -14.434 -27.809  0.00  0.00    +0.000 C 
ATOM      4  C   UNL     1     -45.991 -14.637 -25.493  0.00  0.00    +0.000 C 
ATOM      5  C   UNL     1     -45.954 -15.432 -24.218  0.00  0.00    +0.000 C 
ATOM      6  O   UNL     1     -46.717 -15.092 -23.275  0.00  0.00    +0.000 OA
ATOM      7  C   UNL     1     -45.062 -16.607 -24.067  0.00  0.00    +0.000 C 
ATOM      8  C   UNL     1     -44.391 -17.083 -25.156  0.00  0.00    +0.000 C 
ATOM      9  C   UNL     1     -44.569 -16.452 -26.509  0.00  0.00    +0.000 C 
ATOM     10  N   UNL     1     -43.582 -18.271 -25.075  0.00  0.00    +0.000 N 
ATOM     11  C   UNL     1     -43.510 -18.964 -23.836  0.00  0.00    +0.000 A 
ATOM     12  N   UNL     1     -42.864 -20.120 -23.602  0.00  0.00    +0.000 N 
ATOM     13  N   UNL     1     -43.070 -20.428 -22.324  0.00  0.00    +0.000 NA
ATOM     14  C   UNL     1     -43.844 -19.465 -21.777  0.00  0.00    +0.000 A 
ATOM     15  C   UNL     1     -44.144 -18.519 -22.726  0.00  0.00    +0.000 A 
ATOM     16  C   UNL     1     -44.903 -17.229 -22.674  0.00  0.00    +0.000 C 
ATOM     17  H   UNL     1     -43.089 -18.597 -25.862  0.00  0.00    +0.000 HD
ATOM     18  H   UNL     1     -42.338 -20.639 -24.253  0.00  0.00    +0.000 HD
ENDROOT
BRANCH  16  19
ATOM     19  C   UNL     1     -44.246 -16.269 -21.714  0.00  0.00    +0.000 A 
ATOM     20  C   UNL     1     -43.012 -15.689 -22.038  0.00  0.00    +0.000 A 
ATOM     21  C   UNL     1     -42.401 -14.807 -21.145  0.00  0.00    +0.000 A 
ATOM     22  N   UNL     1     -42.997 -14.511 -19.960  0.00  0.00    +0.000 NA
ATOM     23  C   UNL     1     -44.191 -15.055 -19.607  0.00  0.00    +0.000 A 
ATOM     24  C   UNL     1     -44.769 -14.727 -18.378  0.00  0.00    +0.000 A 
ATOM     25  C   UNL     1     -45.996 -15.286 -18.008  0.00  0.00    +0.000 A 
ATOM     26  C   UNL     1     -46.649 -16.176 -18.866  0.00  0.00    +0.000 A 
ATOM     27  C   UNL     1     -46.078 -16.509 -20.098  0.00  0.00    +0.000 A 
ATOM     28  C   UNL     1     -44.847 -15.955 -20.481  0.00  0.00    +0.000 A 
ENDBRANCH  16  19
BRANCH  14  29
ATOM     29  O   UNL     1     -44.252 -19.452 -20.451  0.00  0.00    +0.000 OA
ATOM     30  H   UNL     1     -43.619 -19.531 -19.765  0.00  0.00    +0.000 HD
ENDBRANCH  14  29
TORSDOF 2
ENDMDL
