MODEL 1
REMARK VINA RESULT:      -6.3      0.000      0.000
REMARK  Name = ZINC000005372519 ZINC05372519 PubChem-92261928
REMARK  9 active torsions:
REMARK  status: ('A' for Active; 'I' for Inactive)
REMARK    1  A    between atoms: N_14  and  C_20
REMARK    2  A    between atoms: C_20  and  C_21
REMARK    3  A    between atoms: C_21  and  O_22
REMARK    4  A    between atoms: C_21  and  C_24
REMARK    5  A    between atoms: C_24  and  O_25
REMARK    6  A    between atoms: C_24  and  C_27
REMARK    7  A    between atoms: C_27  and  O_28
REMARK    8  A    between atoms: C_27  and  C_30
REMARK    9  A    between atoms: C_30  and  O_31
REMARK                            x       y       z     vdW  Elec       q    Type
REMARK                         _______ _______ _______ _____ _____    ______ ____
ROOT
ATOM      1  C   UNL     1     -44.099 -18.793 -25.870  0.00  0.00    +0.000 C 
ATOM      2  C   UNL     1     -44.361 -18.542 -24.424  0.00  0.00    +0.000 A 
ATOM      3  C   UNL     1     -44.961 -17.338 -24.051  0.00  0.00    +0.000 A 
ATOM      4  C   UNL     1     -45.228 -17.063 -22.707  0.00  0.00    +0.000 A 
ATOM      5  C   UNL     1     -45.808 -15.847 -22.371  0.00  0.00    +0.000 A 
ATOM      6  C   UNL     1     -46.062 -15.546 -21.038  0.00  0.00    +0.000 A 
ATOM      7  C   UNL     1     -46.626 -14.329 -20.636  0.00  0.00    +0.000 A 
ATOM      8  O   UNL     1     -46.941 -13.453 -21.486  0.00  0.00    +0.000 OA
ATOM      9  N   UNL     1     -46.832 -14.084 -19.314  0.00  0.00    +0.000 N 
ATOM     10  C   UNL     1     -46.509 -14.979 -18.341  0.00  0.00    +0.000 A 
ATOM     11  O   UNL     1     -46.722 -14.691 -17.135  0.00  0.00    +0.000 OA
ATOM     12  C   UNL     1     -45.947 -16.214 -18.666  0.00  0.00    +0.000 A 
ATOM     13  C   UNL     1     -45.711 -16.548 -20.005  0.00  0.00    +0.000 A 
ATOM     14  N   UNL     1     -45.167 -17.753 -20.376  0.00  0.00    +0.000 N 
ATOM     15  C   UNL     1     -44.898 -18.010 -21.702  0.00  0.00    +0.000 A 
ATOM     16  C   UNL     1     -44.278 -19.209 -22.096  0.00  0.00    +0.000 A 
ATOM     17  C   UNL     1     -44.011 -19.480 -23.440  0.00  0.00    +0.000 A 
ATOM     18  C   UNL     1     -43.368 -20.778 -23.791  0.00  0.00    +0.000 C 
ATOM     19  H   UNL     1     -47.233 -13.224 -19.051  0.00  0.00    +0.000 HD
ENDROOT
BRANCH  14  20
ATOM     20  C   UNL     1     -44.850 -18.756 -19.345  0.00  0.00    +0.000 C 
BRANCH  20  21
ATOM     21  C   UNL     1     -43.356 -18.792 -18.994  0.00  0.00    +0.000 C 
BRANCH  21  22
ATOM     22  O   UNL     1     -43.009 -17.700 -18.192  0.00  0.00    +0.000 OA
ATOM     23  H   UNL     1     -42.773 -16.948 -18.757  0.00  0.00    +0.000 HD
ENDBRANCH  21  22
BRANCH  21  24
ATOM     24  C   UNL     1     -42.949 -20.106 -18.325  0.00  0.00    +0.000 C 
BRANCH  24  25
ATOM     25  O   UNL     1     -44.032 -20.991 -18.321  0.00  0.00    +0.000 OA
ATOM     26  H   UNL     1     -43.822 -21.763 -18.869  0.00  0.00    +0.000 HD
ENDBRANCH  24  25
BRANCH  24  27
ATOM     27  C   UNL     1     -41.751 -20.747 -19.028  0.00  0.00    +0.000 C 
BRANCH  27  28
ATOM     28  O   UNL     1     -42.141 -21.316 -20.242  0.00  0.00    +0.000 OA
ATOM     29  H   UNL     1     -42.355 -20.613 -20.875  0.00  0.00    +0.000 HD
ENDBRANCH  27  28
BRANCH  27  30
ATOM     30  C   UNL     1     -41.113 -21.810 -18.149  0.00  0.00    +0.000 C 
BRANCH  30  31
ATOM     31  O   UNL     1     -41.571 -21.681 -16.839  0.00  0.00    +0.000 OA
ATOM     32  H   UNL     1     -41.484 -22.532 -16.380  0.00  0.00    +0.000 HD
ENDBRANCH  30  31
ENDBRANCH  27  30
ENDBRANCH  24  27
ENDBRANCH  21  24
ENDBRANCH  20  21
ENDBRANCH  14  20
TORSDOF 9
ENDMDL
MODEL 2
REMARK VINA RESULT:      -6.2      4.446      7.144
REMARK  Name = ZINC000005372519 ZINC05372519 PubChem-92261928
REMARK  9 active torsions:
REMARK  status: ('A' for Active; 'I' for Inactive)
REMARK    1  A    between atoms: N_14  and  C_20
REMARK    2  A    between atoms: C_20  and  C_21
REMARK    3  A    between atoms: C_21  and  O_22
REMARK    4  A    between atoms: C_21  and  C_24
REMARK    5  A    between atoms: C_24  and  O_25
REMARK    6  A    between atoms: C_24  and  C_27
REMARK    7  A    between atoms: C_27  and  O_28
REMARK    8  A    between atoms: C_27  and  C_30
REMARK    9  A    between atoms: C_30  and  O_31
REMARK                            x       y       z     vdW  Elec       q    Type
REMARK                         _______ _______ _______ _____ _____    ______ ____
ROOT
ATOM      1  C   UNL     1     -46.040 -16.432 -19.072  0.00  0.00    +0.000 C 
ATOM      2  C   UNL     1     -45.822 -16.481 -20.546  0.00  0.00    +0.000 A 
ATOM      3  C   UNL     1     -45.958 -15.303 -21.283  0.00  0.00    +0.000 A 
ATOM      4  C   UNL     1     -45.760 -15.303 -22.666  0.00  0.00    +0.000 A 
ATOM      5  C   UNL     1     -45.922 -14.116 -23.370  0.00  0.00    +0.000 A 
ATOM      6  C   UNL     1     -45.749 -14.100 -24.749  0.00  0.00    +0.000 A 
ATOM      7  C   UNL     1     -45.919 -12.940 -25.514  0.00  0.00    +0.000 A 
ATOM      8  O   UNL     1     -46.227 -11.847 -24.968  0.00  0.00    +0.000 OA
ATOM      9  N   UNL     1     -45.756 -12.991 -26.863  0.00  0.00    +0.000 N 
ATOM     10  C   UNL     1     -45.433 -14.138 -27.522  0.00  0.00    +0.000 A 
ATOM     11  O   UNL     1     -45.300 -14.120 -28.773  0.00  0.00    +0.000 OA
ATOM     12  C   UNL     1     -45.245 -15.332 -26.826  0.00  0.00    +0.000 A 
ATOM     13  C   UNL     1     -45.384 -15.362 -25.433  0.00  0.00    +0.000 A 
ATOM     14  N   UNL     1     -45.202 -16.510 -24.701  0.00  0.00    +0.000 N 
ATOM     15  C   UNL     1     -45.410 -16.502 -23.340  0.00  0.00    +0.000 A 
ATOM     16  C   UNL     1     -45.296 -17.681 -22.584  0.00  0.00    +0.000 A 
ATOM     17  C   UNL     1     -45.496 -17.679 -21.201  0.00  0.00    +0.000 A 
ATOM     18  C   UNL     1     -45.343 -18.961 -20.456  0.00  0.00    +0.000 C 
ATOM     19  H   UNL     1     -45.876 -12.165 -27.384  0.00  0.00    +0.000 HD
ENDROOT
BRANCH  14  20
ATOM     20  C   UNL     1     -44.807 -17.753 -25.386  0.00  0.00    +0.000 C 
BRANCH  20  21
ATOM     21  C   UNL     1     -43.332 -17.751 -25.814  0.00  0.00    +0.000 C 
BRANCH  21  22
ATOM     22  O   UNL     1     -42.499 -17.978 -24.715  0.00  0.00    +0.000 OA
ATOM     23  H   UNL     1     -42.538 -18.915 -24.468  0.00  0.00    +0.000 HD
ENDBRANCH  21  22
BRANCH  21  24
ATOM     24  C   UNL     1     -43.051 -18.761 -26.926  0.00  0.00    +0.000 C 
BRANCH  24  25
ATOM     25  O   UNL     1     -44.256 -19.240 -27.449  0.00  0.00    +0.000 OA
ATOM     26  H   UNL     1     -44.240 -19.170 -28.417  0.00  0.00    +0.000 HD
ENDBRANCH  24  25
BRANCH  24  27
ATOM     27  C   UNL     1     -42.202 -18.148 -28.041  0.00  0.00    +0.000 C 
BRANCH  27  28
ATOM     28  O   UNL     1     -42.820 -17.007 -28.557  0.00  0.00    +0.000 OA
ATOM     29  H   UNL     1     -42.757 -17.014 -29.525  0.00  0.00    +0.000 HD
ENDBRANCH  27  28
BRANCH  27  30
ATOM     30  C   UNL     1     -41.968 -19.150 -29.159  0.00  0.00    +0.000 C 
BRANCH  30  31
ATOM     31  O   UNL     1     -42.875 -18.927 -30.195  0.00  0.00    +0.000 OA
ATOM     32  H   UNL     1     -43.156 -19.778 -30.568  0.00  0.00    +0.000 HD
ENDBRANCH  30  31
ENDBRANCH  27  30
ENDBRANCH  24  27
ENDBRANCH  21  24
ENDBRANCH  20  21
ENDBRANCH  14  20
TORSDOF 9
ENDMDL
MODEL 3
REMARK VINA RESULT:      -6.1      2.166      5.058
REMARK  Name = ZINC000005372519 ZINC05372519 PubChem-92261928
REMARK  9 active torsions:
REMARK  status: ('A' for Active; 'I' for Inactive)
REMARK    1  A    between atoms: N_14  and  C_20
REMARK    2  A    between atoms: C_20  and  C_21
REMARK    3  A    between atoms: C_21  and  O_22
REMARK    4  A    between atoms: C_21  and  C_24
REMARK    5  A    between atoms: C_24  and  O_25
REMARK    6  A    between atoms: C_24  and  C_27
REMARK    7  A    between atoms: C_27  and  O_28
REMARK    8  A    between atoms: C_27  and  C_30
REMARK    9  A    between atoms: C_30  and  O_31
REMARK                            x       y       z     vdW  Elec       q    Type
REMARK                         _______ _______ _______ _____ _____    ______ ____
ROOT
ATOM      1  C   UNL     1     -46.759 -12.148 -19.795  0.00  0.00    +0.000 C 
ATOM      2  C   UNL     1     -46.484 -13.544 -20.241  0.00  0.00    +0.000 A 
ATOM      3  C   UNL     1     -46.214 -13.775 -21.591  0.00  0.00    +0.000 A 
ATOM      4  C   UNL     1     -45.949 -15.067 -22.052  0.00  0.00    +0.000 A 
ATOM      5  C   UNL     1     -45.703 -15.263 -23.405  0.00  0.00    +0.000 A 
ATOM      6  C   UNL     1     -45.457 -16.543 -23.886  0.00  0.00    +0.000 A 
ATOM      7  C   UNL     1     -45.223 -16.805 -25.241  0.00  0.00    +0.000 A 
ATOM      8  O   UNL     1     -45.215 -15.869 -26.087  0.00  0.00    +0.000 OA
ATOM      9  N   UNL     1     -45.009 -18.083 -25.655  0.00  0.00    +0.000 N 
ATOM     10  C   UNL     1     -45.013 -19.143 -24.801  0.00  0.00    +0.000 A 
ATOM     11  O   UNL     1     -44.811 -20.302 -25.248  0.00  0.00    +0.000 OA
ATOM     12  C   UNL     1     -45.236 -18.959 -23.436  0.00  0.00    +0.000 A 
ATOM     13  C   UNL     1     -45.455 -17.673 -22.928  0.00  0.00    +0.000 A 
ATOM     14  N   UNL     1     -45.671 -17.438 -21.592  0.00  0.00    +0.000 N 
ATOM     15  C   UNL     1     -45.943 -16.163 -21.150  0.00  0.00    +0.000 A 
ATOM     16  C   UNL     1     -46.235 -15.913 -19.797  0.00  0.00    +0.000 A 
ATOM     17  C   UNL     1     -46.502 -14.620 -19.340  0.00  0.00    +0.000 A 
ATOM     18  C   UNL     1     -46.787 -14.422 -17.890  0.00  0.00    +0.000 C 
ATOM     19  H   UNL     1     -44.843 -18.247 -26.611  0.00  0.00    +0.000 HD
ENDROOT
BRANCH  14  20
ATOM     20  C   UNL     1     -45.636 -18.563 -20.642  0.00  0.00    +0.000 C 
BRANCH  20  21
ATOM     21  C   UNL     1     -44.211 -18.907 -20.184  0.00  0.00    +0.000 C 
BRANCH  21  22
ATOM     22  O   UNL     1     -43.401 -17.767 -20.191  0.00  0.00    +0.000 OA
ATOM     23  H   UNL     1     -42.758 -17.833 -20.914  0.00  0.00    +0.000 HD
ENDBRANCH  21  22
BRANCH  21  24
ATOM     24  C   UNL     1     -44.190 -19.578 -18.810  0.00  0.00    +0.000 C 
BRANCH  24  25
ATOM     25  O   UNL     1     -45.271 -20.457 -18.695  0.00  0.00    +0.000 OA
ATOM     26  H   UNL     1     -45.497 -20.573 -17.759  0.00  0.00    +0.000 HD
ENDBRANCH  24  25
BRANCH  24  27
ATOM     27  C   UNL     1     -42.877 -20.325 -18.569  0.00  0.00    +0.000 C 
BRANCH  27  28
ATOM     28  O   UNL     1     -43.126 -21.655 -18.224  0.00  0.00    +0.000 OA
ATOM     29  H   UNL     1     -42.877 -21.802 -17.299  0.00  0.00    +0.000 HD
ENDBRANCH  27  28
BRANCH  27  30
ATOM     30  C   UNL     1     -42.067 -19.657 -17.471  0.00  0.00    +0.000 C 
BRANCH  30  31
ATOM     31  O   UNL     1     -42.511 -18.349 -17.282  0.00  0.00    +0.000 OA
ATOM     32  H   UNL     1     -43.354 -18.222 -17.746  0.00  0.00    +0.000 HD
ENDBRANCH  30  31
ENDBRANCH  27  30
ENDBRANCH  24  27
ENDBRANCH  21  24
ENDBRANCH  20  21
ENDBRANCH  14  20
TORSDOF 9
ENDMDL
