MODEL 1
REMARK VINA RESULT:      -6.1      0.000      0.000
REMARK  Name = ZINC000007171592 ZINC07171592 PubChem-8287314
REMARK  5 active torsions:
REMARK  status: ('A' for Active; 'I' for Inactive)
REMARK    1  A    between atoms: C_2  and  C_3
REMARK    2  A    between atoms: C_2  and  S_17
REMARK    3  A    between atoms: S_17  and  C_18
REMARK    4  A    between atoms: C_21  and  C_29
REMARK    5  A    between atoms: N_22  and  C_23
REMARK                            x       y       z     vdW  Elec       q    Type
REMARK                         _______ _______ _______ _____ _____    ______ ____
ROOT
ATOM      1  C   UNL     1     -45.944  -5.787 -28.351  0.00  0.00    +0.000 C 
ATOM      2  C   UNL     1     -45.917  -5.855 -29.870  0.00  0.00    +0.000 C 
ENDROOT
BRANCH   2   3
ATOM      3  C   UNL     1     -45.863  -7.269 -30.385  0.00  0.00    +0.000 C 
ATOM      4  O   UNL     1     -46.872  -8.018 -30.263  0.00  0.00    +0.000 OA
ATOM      5  N   UNL     1     -44.658  -7.776 -30.996  0.00  0.00    +0.000 N 
ATOM      6  C   UNL     1     -43.395  -7.075 -30.731  0.00  0.00    +0.000 C 
ATOM      7  C   UNL     1     -42.232  -8.018 -30.717  0.00  0.00    +0.000 C 
ATOM      8  O   UNL     1     -41.192  -7.722 -30.074  0.00  0.00    +0.000 OA
ATOM      9  N   UNL     1     -42.275  -9.218 -31.489  0.00  0.00    +0.000 N 
ATOM     10  C   UNL     1     -43.481  -9.614 -32.140  0.00  0.00    +0.000 A 
ATOM     11  C   UNL     1     -44.672  -8.904 -31.901  0.00  0.00    +0.000 A 
ATOM     12  C   UNL     1     -45.847  -9.304 -32.559  0.00  0.00    +0.000 A 
ATOM     13  C   UNL     1     -45.837 -10.400 -33.426  0.00  0.00    +0.000 A 
ATOM     14  C   UNL     1     -44.652 -11.107 -33.645  0.00  0.00    +0.000 A 
ATOM     15  C   UNL     1     -43.475 -10.715 -33.003  0.00  0.00    +0.000 A 
ATOM     16  H   UNL     1     -41.467  -9.776 -31.572  0.00  0.00    +0.000 HD
ENDBRANCH   2   3
BRANCH   2  17
ATOM     17  S   UNL     1     -47.375  -5.006 -30.546  0.00  0.00    +0.000 S 
BRANCH  17  18
ATOM     18  C   UNL     1     -46.386  -3.665 -31.211  0.00  0.00    +0.000 A 
ATOM     19  N   UNL     1     -46.134  -2.537 -30.521  0.00  0.00    +0.000 NA
ATOM     20  N   UNL     1     -45.429  -1.747 -31.314  0.00  0.00    +0.000 NA
ATOM     21  C   UNL     1     -45.272  -2.398 -32.487  0.00  0.00    +0.000 A 
ATOM     22  N   UNL     1     -45.854  -3.619 -32.452  0.00  0.00    +0.000 N 
BRANCH  22  23
ATOM     23  C   UNL     1     -45.874  -4.633 -33.477  0.00  0.00    +0.000 A 
ATOM     24  C   UNL     1     -44.759  -5.460 -33.685  0.00  0.00    +0.000 A 
ATOM     25  C   UNL     1     -44.778  -6.444 -34.677  0.00  0.00    +0.000 A 
ATOM     26  C   UNL     1     -45.913  -6.610 -35.474  0.00  0.00    +0.000 A 
ATOM     27  C   UNL     1     -47.028  -5.790 -35.280  0.00  0.00    +0.000 A 
ATOM     28  C   UNL     1     -47.007  -4.808 -34.287  0.00  0.00    +0.000 A 
ENDBRANCH  22  23
BRANCH  21  29
ATOM     29  C   UNL     1     -44.459  -1.866 -33.631  0.00  0.00    +0.000 C 
ATOM     30  C   UNL     1     -42.971  -2.016 -33.367  0.00  0.00    +0.000 C 
ATOM     31  C   UNL     1     -43.641  -0.680 -33.156  0.00  0.00    +0.000 C 
ENDBRANCH  21  29
ENDBRANCH  17  18
ENDBRANCH   2  17
TORSDOF 5
ENDMDL
MODEL 2
REMARK VINA RESULT:      -6.0      2.331      2.779
REMARK  Name = ZINC000007171592 ZINC07171592 PubChem-8287314
REMARK  5 active torsions:
REMARK  status: ('A' for Active; 'I' for Inactive)
REMARK    1  A    between atoms: C_2  and  C_3
REMARK    2  A    between atoms: C_2  and  S_17
REMARK    3  A    between atoms: S_17  and  C_18
REMARK    4  A    between atoms: C_21  and  C_29
REMARK    5  A    between atoms: N_22  and  C_23
REMARK                            x       y       z     vdW  Elec       q    Type
REMARK                         _______ _______ _______ _____ _____    ______ ____
ROOT
ATOM      1  C   UNL     1     -44.249  -5.749 -29.506  0.00  0.00    +0.000 C 
ATOM      2  C   UNL     1     -45.069  -6.722 -30.341  0.00  0.00    +0.000 C 
ENDROOT
BRANCH   2   3
ATOM      3  C   UNL     1     -45.060  -8.118 -29.777  0.00  0.00    +0.000 C 
ATOM      4  O   UNL     1     -44.774  -8.300 -28.561  0.00  0.00    +0.000 OA
ATOM      5  N   UNL     1     -45.353  -9.247 -30.626  0.00  0.00    +0.000 N 
ATOM      6  C   UNL     1     -45.239  -9.075 -32.080  0.00  0.00    +0.000 C 
ATOM      7  C   UNL     1     -44.801 -10.339 -32.754  0.00  0.00    +0.000 C 
ATOM      8  O   UNL     1     -44.213 -10.286 -33.864  0.00  0.00    +0.000 OA
ATOM      9  N   UNL     1     -45.114 -11.605 -32.172  0.00  0.00    +0.000 N 
ATOM     10  C   UNL     1     -45.690 -11.677 -30.869  0.00  0.00    +0.000 A 
ATOM     11  C   UNL     1     -45.813 -10.510 -30.091  0.00  0.00    +0.000 A 
ATOM     12  C   UNL     1     -46.391 -10.601 -28.814  0.00  0.00    +0.000 A 
ATOM     13  C   UNL     1     -46.824 -11.833 -28.317  0.00  0.00    +0.000 A 
ATOM     14  C   UNL     1     -46.685 -12.988 -29.092  0.00  0.00    +0.000 A 
ATOM     15  C   UNL     1     -46.118 -12.910 -30.367  0.00  0.00    +0.000 A 
ATOM     16  H   UNL     1     -44.931 -12.432 -32.674  0.00  0.00    +0.000 HD
ENDBRANCH   2   3
BRANCH   2  17
ATOM     17  S   UNL     1     -46.780  -6.121 -30.476  0.00  0.00    +0.000 S 
BRANCH  17  18
ATOM     18  C   UNL     1     -46.254  -4.520 -31.092  0.00  0.00    +0.000 A 
ATOM     19  N   UNL     1     -46.372  -3.390 -30.370  0.00  0.00    +0.000 NA
ATOM     20  N   UNL     1     -45.942  -2.398 -31.133  0.00  0.00    +0.000 NA
ATOM     21  C   UNL     1     -45.584  -2.934 -32.319  0.00  0.00    +0.000 A 
ATOM     22  N   UNL     1     -45.755  -4.276 -32.324  0.00  0.00    +0.000 N 
BRANCH  22  23
ATOM     23  C   UNL     1     -45.451  -5.216 -33.374  0.00  0.00    +0.000 A 
ATOM     24  C   UNL     1     -46.460  -5.678 -34.234  0.00  0.00    +0.000 A 
ATOM     25  C   UNL     1     -46.165  -6.588 -35.253  0.00  0.00    +0.000 A 
ATOM     26  C   UNL     1     -44.857  -7.048 -35.421  0.00  0.00    +0.000 A 
ATOM     27  C   UNL     1     -43.845  -6.598 -34.569  0.00  0.00    +0.000 A 
ATOM     28  C   UNL     1     -44.141  -5.688 -33.552  0.00  0.00    +0.000 A 
ENDBRANCH  22  23
BRANCH  21  29
ATOM     29  C   UNL     1     -44.970  -2.143 -33.438  0.00  0.00    +0.000 C 
ATOM     30  C   UNL     1     -43.456  -2.099 -33.316  0.00  0.00    +0.000 C 
ATOM     31  C   UNL     1     -44.281  -0.917 -32.865  0.00  0.00    +0.000 C 
ENDBRANCH  21  29
ENDBRANCH  17  18
ENDBRANCH   2  17
TORSDOF 5
ENDMDL
MODEL 3
REMARK VINA RESULT:      -5.9      2.939      4.475
REMARK  Name = ZINC000007171592 ZINC07171592 PubChem-8287314
REMARK  5 active torsions:
REMARK  status: ('A' for Active; 'I' for Inactive)
REMARK    1  A    between atoms: C_2  and  C_3
REMARK    2  A    between atoms: C_2  and  S_17
REMARK    3  A    between atoms: S_17  and  C_18
REMARK    4  A    between atoms: C_21  and  C_29
REMARK    5  A    between atoms: N_22  and  C_23
REMARK                            x       y       z     vdW  Elec       q    Type
REMARK                         _______ _______ _______ _____ _____    ______ ____
ROOT
ATOM      1  C   UNL     1     -44.740  -6.313 -29.830  0.00  0.00    +0.000 C 
ATOM      2  C   UNL     1     -45.360  -7.531 -30.498  0.00  0.00    +0.000 C 
ENDROOT
BRANCH   2   3
ATOM      3  C   UNL     1     -45.364  -8.741 -29.602  0.00  0.00    +0.000 C 
ATOM      4  O   UNL     1     -45.659  -8.615 -28.381  0.00  0.00    +0.000 OA
ATOM      5  N   UNL     1     -45.011 -10.037 -30.129  0.00  0.00    +0.000 N 
ATOM      6  C   UNL     1     -44.256 -10.096 -31.388  0.00  0.00    +0.000 C 
ATOM      7  C   UNL     1     -43.330 -11.273 -31.423  0.00  0.00    +0.000 C 
ATOM      8  O   UNL     1     -42.308 -11.245 -32.156  0.00  0.00    +0.000 OA
ATOM      9  N   UNL     1     -43.645 -12.452 -30.684  0.00  0.00    +0.000 N 
ATOM     10  C   UNL     1     -44.745 -12.462 -29.775  0.00  0.00    +0.000 A 
ATOM     11  C   UNL     1     -45.430 -11.266 -29.491  0.00  0.00    +0.000 A 
ATOM     12  C   UNL     1     -46.515 -11.298 -28.600  0.00  0.00    +0.000 A 
ATOM     13  C   UNL     1     -46.900 -12.496 -27.992  0.00  0.00    +0.000 A 
ATOM     14  C   UNL     1     -46.203 -13.675 -28.269  0.00  0.00    +0.000 A 
ATOM     15  C   UNL     1     -45.127 -13.659 -29.160  0.00  0.00    +0.000 A 
ATOM     16  H   UNL     1     -43.100 -13.264 -30.801  0.00  0.00    +0.000 HD
ENDBRANCH   2   3
BRANCH   2  17
ATOM     17  S   UNL     1     -47.057  -7.144 -31.022  0.00  0.00    +0.000 S 
BRANCH  17  18
ATOM     18  C   UNL     1     -46.713  -7.571 -32.730  0.00  0.00    +0.000 A 
ATOM     19  N   UNL     1     -46.850  -8.822 -33.207  0.00  0.00    +0.000 NA
ATOM     20  N   UNL     1     -46.469  -8.797 -34.474  0.00  0.00    +0.000 NA
ATOM     21  C   UNL     1     -46.088  -7.532 -34.750  0.00  0.00    +0.000 A 
ATOM     22  N   UNL     1     -46.241  -6.727 -33.674  0.00  0.00    +0.000 N 
BRANCH  22  23
ATOM     23  C   UNL     1     -45.991  -5.310 -33.569  0.00  0.00    +0.000 A 
ATOM     24  C   UNL     1     -44.693  -4.829 -33.341  0.00  0.00    +0.000 A 
ATOM     25  C   UNL     1     -44.450  -3.456 -33.241  0.00  0.00    +0.000 A 
ATOM     26  C   UNL     1     -45.506  -2.550 -33.366  0.00  0.00    +0.000 A 
ATOM     27  C   UNL     1     -46.803  -3.017 -33.590  0.00  0.00    +0.000 A 
ATOM     28  C   UNL     1     -47.044  -4.390 -33.691  0.00  0.00    +0.000 A 
ENDBRANCH  22  23
BRANCH  21  29
ATOM     29  C   UNL     1     -45.658  -7.071 -36.113  0.00  0.00    +0.000 C 
ATOM     30  C   UNL     1     -46.850  -6.644 -36.952  0.00  0.00    +0.000 C 
ATOM     31  C   UNL     1     -46.232  -8.005 -37.162  0.00  0.00    +0.000 C 
ENDBRANCH  21  29
ENDBRANCH  17  18
ENDBRANCH   2  17
TORSDOF 5
ENDMDL
