MODEL 1
REMARK VINA RESULT:      -7.0      0.000      0.000
REMARK  Name = ZINC000031811577
REMARK  1 active torsions:
REMARK  status: ('A' for Active; 'I' for Inactive)
REMARK    1  A    between atoms: C_7  and  C_24
REMARK                            x       y       z     vdW  Elec       q    Type
REMARK                         _______ _______ _______ _____ _____    ______ ____
ROOT
ATOM      1  C   UNL     1     -45.098 -18.503 -22.213  0.00  0.00    +0.000 C 
ATOM      2  C   UNL     1     -45.386 -17.043 -22.258  0.00  0.00    +0.000 A 
ATOM      3  N   UNL     1     -45.354 -16.342 -23.404  0.00  0.00    +0.000 NA
ATOM      4  N   UNL     1     -45.718 -15.100 -23.135  0.00  0.00    +0.000 N 
ATOM      5  C   UNL     1     -46.036 -14.996 -21.823  0.00  0.00    +0.000 A 
ATOM      6  C   UNL     1     -45.773 -16.222 -21.197  0.00  0.00    +0.000 A 
ATOM      7  C   UNL     1     -45.945 -16.622 -19.739  0.00  0.00    +0.000 C 
ATOM      8  S   UNL     1     -45.693 -15.236 -18.593  0.00  0.00    +0.000 S 
ATOM      9  C   UNL     1     -47.359 -14.657 -18.958  0.00  0.00    +0.000 C 
ATOM     10  C   UNL     1     -47.284 -13.607 -20.000  0.00  0.00    +0.000 C 
ATOM     11  O   UNL     1     -47.756 -12.471 -19.742  0.00  0.00    +0.000 OA
ATOM     12  N   UNL     1     -46.702 -13.839 -21.287  0.00  0.00    +0.000 N 
ATOM     13  H   UNL     1     -46.769 -13.079 -21.910  0.00  0.00    +0.000 HD
ATOM     14  C   UNL     1     -45.804 -14.092 -24.156  0.00  0.00    +0.000 A 
ATOM     15  N   UNL     1     -46.269 -14.425 -25.399  0.00  0.00    +0.000 NA
ATOM     16  C   UNL     1     -46.337 -13.506 -26.416  0.00  0.00    +0.000 A 
ATOM     17  N   UNL     1     -45.918 -12.221 -26.217  0.00  0.00    +0.000 NA
ATOM     18  C   UNL     1     -45.439 -11.890 -24.995  0.00  0.00    +0.000 A 
ATOM     19  N   UNL     1     -44.949 -10.700 -24.629  0.00  0.00    +0.000 N 
ATOM     20  C   UNL     1     -44.562 -10.924 -23.344  0.00  0.00    +0.000 A 
ATOM     21  N   UNL     1     -44.790 -12.196 -22.915  0.00  0.00    +0.000 NA
ATOM     22  C   UNL     1     -45.357 -12.778 -23.980  0.00  0.00    +0.000 A 
ATOM     23  H   UNL     1     -44.885  -9.871 -25.156  0.00  0.00    +0.000 HD
ENDROOT
BRANCH   7  24
ATOM     24  C   UNL     1     -45.055 -17.762 -19.315  0.00  0.00    +0.000 A 
ATOM     25  C   UNL     1     -45.629 -19.023 -19.086  0.00  0.00    +0.000 A 
ATOM     26  F   UNL     1     -46.967 -19.206 -19.216  0.00  0.00    +0.000 F 
ATOM     27  C   UNL     1     -44.828 -20.099 -18.692  0.00  0.00    +0.000 A 
ATOM     28  C   UNL     1     -43.453 -19.924 -18.521  0.00  0.00    +0.000 A 
ATOM     29  C   UNL     1     -42.875 -18.672 -18.742  0.00  0.00    +0.000 A 
ATOM     30  C   UNL     1     -43.666 -17.592 -19.137  0.00  0.00    +0.000 A 
ATOM     31  F   UNL     1     -43.083 -16.383 -19.334  0.00  0.00    +0.000 F 
ENDBRANCH   7  24
TORSDOF 1
ENDMDL
MODEL 2
REMARK VINA RESULT:      -6.8     10.784     13.922
REMARK  Name = ZINC000031811577
REMARK  1 active torsions:
REMARK  status: ('A' for Active; 'I' for Inactive)
REMARK    1  A    between atoms: C_7  and  C_24
REMARK                            x       y       z     vdW  Elec       q    Type
REMARK                         _______ _______ _______ _____ _____    ______ ____
ROOT
ATOM      1  C   UNL     1     -43.146  -6.907 -28.085  0.00  0.00    +0.000 C 
ATOM      2  C   UNL     1     -43.468  -6.097 -29.292  0.00  0.00    +0.000 A 
ATOM      3  N   UNL     1     -42.542  -5.363 -29.931  0.00  0.00    +0.000 NA
ATOM      4  N   UNL     1     -43.109  -4.820 -30.994  0.00  0.00    +0.000 N 
ATOM      5  C   UNL     1     -44.395  -5.235 -31.081  0.00  0.00    +0.000 A 
ATOM      6  C   UNL     1     -44.694  -6.018 -29.957  0.00  0.00    +0.000 A 
ATOM      7  C   UNL     1     -45.995  -6.705 -29.574  0.00  0.00    +0.000 C 
ATOM      8  S   UNL     1     -47.464  -5.809 -30.153  0.00  0.00    +0.000 S 
ATOM      9  C   UNL     1     -47.215  -6.503 -31.796  0.00  0.00    +0.000 C 
ATOM     10  C   UNL     1     -46.479  -5.521 -32.625  0.00  0.00    +0.000 C 
ATOM     11  O   UNL     1     -47.006  -5.124 -33.695  0.00  0.00    +0.000 OA
ATOM     12  N   UNL     1     -45.192  -5.015 -32.258  0.00  0.00    +0.000 N 
ATOM     13  H   UNL     1     -44.782  -4.415 -32.924  0.00  0.00    +0.000 HD
ATOM     14  C   UNL     1     -42.378  -3.983 -31.906  0.00  0.00    +0.000 A 
ATOM     15  N   UNL     1     -41.079  -4.287 -32.211  0.00  0.00    +0.000 NA
ATOM     16  C   UNL     1     -40.330  -3.500 -33.048  0.00  0.00    +0.000 A 
ATOM     17  N   UNL     1     -40.862  -2.366 -33.593  0.00  0.00    +0.000 NA
ATOM     18  C   UNL     1     -42.140  -2.049 -33.279  0.00  0.00    +0.000 A 
ATOM     19  N   UNL     1     -42.812  -0.964 -33.681  0.00  0.00    +0.000 N 
ATOM     20  C   UNL     1     -44.007  -1.105 -33.046  0.00  0.00    +0.000 A 
ATOM     21  N   UNL     1     -44.090  -2.223 -32.273  0.00  0.00    +0.000 NA
ATOM     22  C   UNL     1     -42.897  -2.805 -32.453  0.00  0.00    +0.000 A 
ATOM     23  H   UNL     1     -42.516  -0.244 -34.285  0.00  0.00    +0.000 HD
ENDROOT
BRANCH   7  24
ATOM     24  C   UNL     1     -46.137  -6.950 -28.093  0.00  0.00    +0.000 A 
ATOM     25  C   UNL     1     -46.157  -8.274 -27.622  0.00  0.00    +0.000 A 
ATOM     26  F   UNL     1     -46.079  -9.315 -28.488  0.00  0.00    +0.000 F 
ATOM     27  C   UNL     1     -46.287  -8.530 -26.254  0.00  0.00    +0.000 A 
ATOM     28  C   UNL     1     -46.401  -7.473 -25.349  0.00  0.00    +0.000 A 
ATOM     29  C   UNL     1     -46.387  -6.155 -25.810  0.00  0.00    +0.000 A 
ATOM     30  C   UNL     1     -46.256  -5.887 -27.174  0.00  0.00    +0.000 A 
ATOM     31  F   UNL     1     -46.257  -4.598 -27.597  0.00  0.00    +0.000 F 
ENDBRANCH   7  24
TORSDOF 1
ENDMDL
MODEL 3
REMARK VINA RESULT:      -6.7      9.421     14.082
REMARK  Name = ZINC000031811577
REMARK  1 active torsions:
REMARK  status: ('A' for Active; 'I' for Inactive)
REMARK    1  A    between atoms: C_7  and  C_24
REMARK                            x       y       z     vdW  Elec       q    Type
REMARK                         _______ _______ _______ _____ _____    ______ ____
ROOT
ATOM      1  C   UNL     1     -47.279  -4.500 -30.136  0.00  0.00    +0.000 C 
ATOM      2  C   UNL     1     -46.901  -5.938 -30.049  0.00  0.00    +0.000 A 
ATOM      3  N   UNL     1     -47.008  -6.640 -28.908  0.00  0.00    +0.000 NA
ATOM      4  N   UNL     1     -46.667  -7.891 -29.162  0.00  0.00    +0.000 N 
ATOM      5  C   UNL     1     -46.383  -8.023 -30.480  0.00  0.00    +0.000 A 
ATOM      6  C   UNL     1     -46.459  -6.762 -31.086  0.00  0.00    +0.000 A 
ATOM      7  C   UNL     1     -46.216  -6.368 -32.536  0.00  0.00    +0.000 C 
ATOM      8  S   UNL     1     -44.976  -7.412 -33.353  0.00  0.00    +0.000 S 
ATOM      9  C   UNL     1     -46.227  -8.688 -33.579  0.00  0.00    +0.000 C 
ATOM     10  C   UNL     1     -46.109  -9.675 -32.481  0.00  0.00    +0.000 C 
ATOM     11  O   UNL     1     -45.907 -10.880 -32.777  0.00  0.00    +0.000 OA
ATOM     12  N   UNL     1     -46.224  -9.311 -31.102  0.00  0.00    +0.000 N 
ATOM     13  H   UNL     1     -46.188 -10.068 -30.474  0.00  0.00    +0.000 HD
ATOM     14  C   UNL     1     -46.692  -8.910 -28.148  0.00  0.00    +0.000 A 
ATOM     15  N   UNL     1     -47.689  -8.909 -27.212  0.00  0.00    +0.000 NA
ATOM     16  C   UNL     1     -47.735  -9.840 -26.204  0.00  0.00    +0.000 A 
ATOM     17  N   UNL     1     -46.762 -10.793 -26.097  0.00  0.00    +0.000 NA
ATOM     18  C   UNL     1     -45.762 -10.786 -27.009  0.00  0.00    +0.000 A 
ATOM     19  N   UNL     1     -44.708 -11.610 -27.039  0.00  0.00    +0.000 N 
ATOM     20  C   UNL     1     -43.999 -11.143 -28.101  0.00  0.00    +0.000 A 
ATOM     21  N   UNL     1     -44.571 -10.070 -28.714  0.00  0.00    +0.000 NA
ATOM     22  C   UNL     1     -45.692  -9.877 -28.007  0.00  0.00    +0.000 A 
ATOM     23  H   UNL     1     -44.499 -12.365 -26.443  0.00  0.00    +0.000 HD
ENDROOT
BRANCH   7  24
ATOM     24  C   UNL     1     -45.820  -4.925 -32.712  0.00  0.00    +0.000 A 
ATOM     25  C   UNL     1     -46.640  -4.084 -33.483  0.00  0.00    +0.000 A 
ATOM     26  F   UNL     1     -47.756  -4.569 -34.082  0.00  0.00    +0.000 F 
ATOM     27  C   UNL     1     -46.296  -2.741 -33.663  0.00  0.00    +0.000 A 
ATOM     28  C   UNL     1     -45.134  -2.229 -33.082  0.00  0.00    +0.000 A 
ATOM     29  C   UNL     1     -44.311  -3.060 -32.319  0.00  0.00    +0.000 A 
ATOM     30  C   UNL     1     -44.646  -4.403 -32.131  0.00  0.00    +0.000 A 
ATOM     31  F   UNL     1     -43.823  -5.192 -31.395  0.00  0.00    +0.000 F 
ENDBRANCH   7  24
TORSDOF 1
ENDMDL
