MODEL 1
REMARK VINA RESULT:      -6.8      0.000      0.000
REMARK  Name = ZINC000015693488 ZINC15693488 PubChem-26752795
REMARK  5 active torsions:
REMARK  status: ('A' for Active; 'I' for Inactive)
REMARK    1  A    between atoms: C_1  and  C_19
REMARK    2  A    between atoms: C_12  and  C_15
REMARK    3  A    between atoms: C_19  and  O_21
REMARK    4  A    between atoms: O_21  and  C_22
REMARK    5  A    between atoms: C_22  and  C_29
REMARK                            x       y       z     vdW  Elec       q    Type
REMARK                         _______ _______ _______ _____ _____    ______ ____
ROOT
ATOM      1  C   UNL     1     -44.784 -17.735 -23.352  0.00  0.00    +0.000 C 
ATOM      2  O   UNL     1     -44.960 -18.476 -24.357  0.00  0.00    +0.000 OA
ATOM      3  N   UNL     1     -44.976 -16.307 -23.449  0.00  0.00    +0.000 N 
ATOM      4  C   UNL     1     -44.989 -15.519 -22.210  0.00  0.00    +0.000 C 
ATOM      5  C   UNL     1     -45.949 -14.374 -22.301  0.00  0.00    +0.000 C 
ATOM      6  O   UNL     1     -46.465 -13.901 -21.256  0.00  0.00    +0.000 OA
ATOM      7  N   UNL     1     -46.220 -13.772 -23.567  0.00  0.00    +0.000 N 
ATOM      8  C   UNL     1     -45.721 -14.362 -24.767  0.00  0.00    +0.000 A 
ATOM      9  C   UNL     1     -45.099 -15.624 -24.720  0.00  0.00    +0.000 A 
ATOM     10  C   UNL     1     -44.617 -16.188 -25.911  0.00  0.00    +0.000 A 
ATOM     11  C   UNL     1     -44.757 -15.511 -27.125  0.00  0.00    +0.000 A 
ATOM     12  C   UNL     1     -45.371 -14.252 -27.167  0.00  0.00    +0.000 A 
ATOM     13  C   UNL     1     -45.867 -13.691 -25.983  0.00  0.00    +0.000 A 
ATOM     14  H   UNL     1     -46.755 -12.946 -23.612  0.00  0.00    +0.000 HD
ENDROOT
BRANCH  12  15
ATOM     15  C   UNL     1     -45.572 -13.552 -28.480  0.00  0.00    +0.000 C 
ATOM     16  F   UNL     1     -44.863 -12.367 -28.480  0.00  0.00    +0.000 F 
ATOM     17  F   UNL     1     -46.913 -13.276 -28.680  0.00  0.00    +0.000 F 
ATOM     18  F   UNL     1     -45.126 -14.346 -29.523  0.00  0.00    +0.000 F 
ENDBRANCH  12  15
BRANCH   1  19
ATOM     19  C   UNL     1     -44.412 -18.368 -22.042  0.00  0.00    +0.000 C 
ATOM     20  C   UNL     1     -43.541 -19.586 -22.284  0.00  0.00    +0.000 C 
BRANCH  19  21
ATOM     21  O   UNL     1     -45.580 -18.755 -21.326  0.00  0.00    +0.000 OA
BRANCH  21  22
ATOM     22  C   UNL     1     -45.649 -18.739 -19.928  0.00  0.00    +0.000 C 
ATOM     23  O   UNL     1     -45.485 -19.808 -19.281  0.00  0.00    +0.000 OA
BRANCH  22  29
ATOM     24  C   UNL     1     -44.247 -14.438 -17.572  0.00  0.00    +0.000 C 
ATOM     25  C   UNL     1     -45.272 -15.387 -18.100  0.00  0.00    +0.000 A 
ATOM     26  C   UNL     1     -46.619 -15.057 -17.937  0.00  0.00    +0.000 A 
ATOM     27  C   UNL     1     -47.613 -15.906 -18.413  0.00  0.00    +0.000 A 
ATOM     28  C   UNL     1     -47.266 -17.094 -19.054  0.00  0.00    +0.000 A 
ATOM     29  C   UNL     1     -45.923 -17.456 -19.232  0.00  0.00    +0.000 A 
ATOM     30  C   UNL     1     -44.907 -16.586 -18.748  0.00  0.00    +0.000 A 
ATOM     31  C   UNL     1     -43.454 -16.910 -18.909  0.00  0.00    +0.000 C 
ENDBRANCH  22  29
ENDBRANCH  21  22
ENDBRANCH  19  21
ENDBRANCH   1  19
TORSDOF 5
ENDMDL
MODEL 2
REMARK VINA RESULT:      -6.8     12.929     15.772
REMARK  Name = ZINC000015693488 ZINC15693488 PubChem-26752795
REMARK  5 active torsions:
REMARK  status: ('A' for Active; 'I' for Inactive)
REMARK    1  A    between atoms: C_1  and  C_19
REMARK    2  A    between atoms: C_12  and  C_15
REMARK    3  A    between atoms: C_19  and  O_21
REMARK    4  A    between atoms: O_21  and  C_22
REMARK    5  A    between atoms: C_22  and  C_29
REMARK                            x       y       z     vdW  Elec       q    Type
REMARK                         _______ _______ _______ _____ _____    ______ ____
ROOT
ATOM      1  C   UNL     1     -45.751  -3.365 -32.210  0.00  0.00    +0.000 C 
ATOM      2  O   UNL     1     -45.924  -2.357 -31.471  0.00  0.00    +0.000 OA
ATOM      3  N   UNL     1     -44.445  -3.665 -32.748  0.00  0.00    +0.000 N 
ATOM      4  C   UNL     1     -44.243  -4.963 -33.403  0.00  0.00    +0.000 C 
ATOM      5  C   UNL     1     -42.863  -5.490 -33.158  0.00  0.00    +0.000 C 
ATOM      6  O   UNL     1     -42.648  -6.729 -33.192  0.00  0.00    +0.000 OA
ATOM      7  N   UNL     1     -41.780  -4.583 -32.959  0.00  0.00    +0.000 N 
ATOM      8  C   UNL     1     -42.029  -3.184 -32.818  0.00  0.00    +0.000 A 
ATOM      9  C   UNL     1     -43.352  -2.716 -32.712  0.00  0.00    +0.000 A 
ATOM     10  C   UNL     1     -43.576  -1.338 -32.573  0.00  0.00    +0.000 A 
ATOM     11  C   UNL     1     -42.502  -0.444 -32.532  0.00  0.00    +0.000 A 
ATOM     12  C   UNL     1     -41.186  -0.914 -32.644  0.00  0.00    +0.000 A 
ATOM     13  C   UNL     1     -40.957  -2.290 -32.769  0.00  0.00    +0.000 A 
ATOM     14  H   UNL     1     -40.857  -4.923 -32.918  0.00  0.00    +0.000 HD
ENDROOT
BRANCH  12  15
ATOM     15  C   UNL     1     -40.032   0.041 -32.542  0.00  0.00    +0.000 C 
ATOM     16  F   UNL     1     -40.146   1.002 -33.528  0.00  0.00    +0.000 F 
ATOM     17  F   UNL     1     -38.833  -0.631 -32.703  0.00  0.00    +0.000 F 
ATOM     18  F   UNL     1     -40.027   0.661 -31.304  0.00  0.00    +0.000 F 
ENDBRANCH  12  15
BRANCH   1  19
ATOM     19  C   UNL     1     -46.918  -4.268 -32.488  0.00  0.00    +0.000 C 
ATOM     20  C   UNL     1     -47.721  -3.733 -33.658  0.00  0.00    +0.000 C 
BRANCH  19  21
ATOM     21  O   UNL     1     -47.756  -4.364 -31.342  0.00  0.00    +0.000 OA
BRANCH  21  22
ATOM     22  C   UNL     1     -47.475  -5.219 -30.269  0.00  0.00    +0.000 C 
ATOM     23  O   UNL     1     -47.720  -4.845 -29.090  0.00  0.00    +0.000 OA
BRANCH  22  29
ATOM     24  C   UNL     1     -43.631  -8.567 -30.406  0.00  0.00    +0.000 C 
ATOM     25  C   UNL     1     -45.056  -8.176 -30.616  0.00  0.00    +0.000 A 
ATOM     26  C   UNL     1     -45.935  -9.139 -31.116  0.00  0.00    +0.000 A 
ATOM     27  C   UNL     1     -47.274  -8.826 -31.329  0.00  0.00    +0.000 A 
ATOM     28  C   UNL     1     -47.742  -7.545 -31.045  0.00  0.00    +0.000 A 
ATOM     29  C   UNL     1     -46.886  -6.554 -30.544  0.00  0.00    +0.000 A 
ATOM     30  C   UNL     1     -45.519  -6.875 -30.324  0.00  0.00    +0.000 A 
ATOM     31  C   UNL     1     -44.552  -5.865 -29.787  0.00  0.00    +0.000 C 
ENDBRANCH  22  29
ENDBRANCH  21  22
ENDBRANCH  19  21
ENDBRANCH   1  19
TORSDOF 5
ENDMDL
MODEL 3
REMARK VINA RESULT:      -6.7      9.674     13.301
REMARK  Name = ZINC000015693488 ZINC15693488 PubChem-26752795
REMARK  5 active torsions:
REMARK  status: ('A' for Active; 'I' for Inactive)
REMARK    1  A    between atoms: C_1  and  C_19
REMARK    2  A    between atoms: C_12  and  C_15
REMARK    3  A    between atoms: C_19  and  O_21
REMARK    4  A    between atoms: O_21  and  C_22
REMARK    5  A    between atoms: C_22  and  C_29
REMARK                            x       y       z     vdW  Elec       q    Type
REMARK                         _______ _______ _______ _____ _____    ______ ____
ROOT
ATOM      1  C   UNL     1     -45.975  -6.648 -30.711  0.00  0.00    +0.000 C 
ATOM      2  O   UNL     1     -45.760  -6.060 -29.616  0.00  0.00    +0.000 OA
ATOM      3  N   UNL     1     -45.568  -6.048 -31.960  0.00  0.00    +0.000 N 
ATOM      4  C   UNL     1     -45.626  -6.865 -33.178  0.00  0.00    +0.000 C 
ATOM      5  C   UNL     1     -44.508  -6.529 -34.116  0.00  0.00    +0.000 C 
ATOM      6  O   UNL     1     -44.091  -7.391 -34.932  0.00  0.00    +0.000 OA
ATOM      7  N   UNL     1     -43.966  -5.208 -34.133  0.00  0.00    +0.000 N 
ATOM      8  C   UNL     1     -44.361  -4.256 -33.146  0.00  0.00    +0.000 A 
ATOM      9  C   UNL     1     -45.158  -4.662 -32.059  0.00  0.00    +0.000 A 
ATOM     10  C   UNL     1     -45.534  -3.710 -31.099  0.00  0.00    +0.000 A 
ATOM     11  C   UNL     1     -45.118  -2.382 -31.215  0.00  0.00    +0.000 A 
ATOM     12  C   UNL     1     -44.329  -1.979 -32.301  0.00  0.00    +0.000 A 
ATOM     13  C   UNL     1     -43.940  -2.928 -33.255  0.00  0.00    +0.000 A 
ATOM     14  H   UNL     1     -43.318  -4.954 -34.829  0.00  0.00    +0.000 HD
ENDROOT
BRANCH  12  15
ATOM     15  C   UNL     1     -43.835  -0.565 -32.394  0.00  0.00    +0.000 C 
ATOM     16  F   UNL     1     -44.676   0.261 -31.673  0.00  0.00    +0.000 F 
ATOM     17  F   UNL     1     -43.811  -0.146 -33.712  0.00  0.00    +0.000 F 
ATOM     18  F   UNL     1     -42.554  -0.467 -31.877  0.00  0.00    +0.000 F 
ENDBRANCH  12  15
BRANCH   1  19
ATOM     19  C   UNL     1     -46.627  -8.000 -30.691  0.00  0.00    +0.000 C 
ATOM     20  C   UNL     1     -47.595  -8.092 -29.527  0.00  0.00    +0.000 C 
BRANCH  19  21
ATOM     21  O   UNL     1     -45.645  -9.024 -30.572  0.00  0.00    +0.000 OA
BRANCH  21  22
ATOM     22  C   UNL     1     -45.820 -10.305 -31.109  0.00  0.00    +0.000 C 
ATOM     23  O   UNL     1     -45.989 -10.445 -32.351  0.00  0.00    +0.000 OA
BRANCH  22  29
ATOM     24  C   UNL     1     -43.613 -14.316 -28.861  0.00  0.00    +0.000 C 
ATOM     25  C   UNL     1     -44.770 -13.406 -29.108  0.00  0.00    +0.000 A 
ATOM     26  C   UNL     1     -45.964 -13.662 -28.431  0.00  0.00    +0.000 A 
ATOM     27  C   UNL     1     -47.072 -12.843 -28.625  0.00  0.00    +0.000 A 
ATOM     28  C   UNL     1     -46.993 -11.762 -29.502  0.00  0.00    +0.000 A 
ATOM     29  C   UNL     1     -45.810 -11.478 -30.199  0.00  0.00    +0.000 A 
ATOM     30  C   UNL     1     -44.678 -12.314 -29.998  0.00  0.00    +0.000 A 
ATOM     31  C   UNL     1     -43.382 -12.064 -30.707  0.00  0.00    +0.000 C 
ENDBRANCH  22  29
ENDBRANCH  21  22
ENDBRANCH  19  21
ENDBRANCH   1  19
TORSDOF 5
ENDMDL
