MODEL 1
REMARK VINA RESULT:      -6.9      0.000      0.000
REMARK  Name = ZINC000031808022
REMARK  1 active torsions:
REMARK  status: ('A' for Active; 'I' for Inactive)
REMARK    1  A    between atoms: C_7  and  C_24
REMARK                            x       y       z     vdW  Elec       q    Type
REMARK                         _______ _______ _______ _____ _____    ______ ____
ROOT
ATOM      1  C   UNL     1     -47.400  -4.486 -26.211  0.00  0.00    +0.000 C 
ATOM      2  C   UNL     1     -46.935  -4.730 -27.605  0.00  0.00    +0.000 A 
ATOM      3  N   UNL     1     -46.785  -3.754 -28.517  0.00  0.00    +0.000 NA
ATOM      4  N   UNL     1     -46.360  -4.316 -29.637  0.00  0.00    +0.000 N 
ATOM      5  C   UNL     1     -46.200  -5.646 -29.451  0.00  0.00    +0.000 A 
ATOM      6  C   UNL     1     -46.584  -5.955 -28.147  0.00  0.00    +0.000 A 
ATOM      7  C   UNL     1     -46.586  -7.251 -27.384  0.00  0.00    +0.000 C 
ATOM      8  S   UNL     1     -46.867  -8.744 -28.386  0.00  0.00    +0.000 S 
ATOM      9  C   UNL     1     -45.232  -8.656 -29.154  0.00  0.00    +0.000 C 
ATOM     10  C   UNL     1     -45.311  -7.894 -30.423  0.00  0.00    +0.000 C 
ATOM     11  O   UNL     1     -45.003  -8.479 -31.492  0.00  0.00    +0.000 OA
ATOM     12  N   UNL     1     -45.683  -6.513 -30.474  0.00  0.00    +0.000 N 
ATOM     13  H   UNL     1     -45.567  -6.088 -31.355  0.00  0.00    +0.000 HD
ATOM     14  C   UNL     1     -46.063  -3.556 -30.818  0.00  0.00    +0.000 A 
ATOM     15  N   UNL     1     -45.494  -2.318 -30.710  0.00  0.00    +0.000 NA
ATOM     16  C   UNL     1     -45.224  -1.554 -31.817  0.00  0.00    +0.000 A 
ATOM     17  N   UNL     1     -45.538  -2.008 -33.066  0.00  0.00    +0.000 NA
ATOM     18  C   UNL     1     -46.116  -3.229 -33.174  0.00  0.00    +0.000 A 
ATOM     19  N   UNL     1     -46.544  -3.813 -34.300  0.00  0.00    +0.000 N 
ATOM     20  C   UNL     1     -47.090  -4.971 -33.840  0.00  0.00    +0.000 A 
ATOM     21  N   UNL     1     -47.021  -5.115 -32.488  0.00  0.00    +0.000 NA
ATOM     22  C   UNL     1     -46.388  -3.999 -32.101  0.00  0.00    +0.000 A 
ATOM     23  H   UNL     1     -46.479  -3.487 -35.227  0.00  0.00    +0.000 HD
ENDROOT
BRANCH   7  24
ATOM     24  C   UNL     1     -45.475  -7.382 -26.375  0.00  0.00    +0.000 A 
ATOM     25  C   UNL     1     -44.165  -7.003 -26.706  0.00  0.00    +0.000 A 
ATOM     26  C   UNL     1     -43.133  -7.120 -25.771  0.00  0.00    +0.000 A 
ATOM     27  C   UNL     1     -43.404  -7.616 -24.496  0.00  0.00    +0.000 A 
ATOM     28  C   UNL     1     -44.704  -7.994 -24.153  0.00  0.00    +0.000 A 
ATOM     29  C   UNL     1     -45.741  -7.879 -25.084  0.00  0.00    +0.000 A 
ATOM     30 CL   UNL     1     -47.360  -8.360 -24.599  0.00  0.00    +0.000 Cl
ENDBRANCH   7  24
TORSDOF 1
ENDMDL
MODEL 2
REMARK VINA RESULT:      -6.6      4.868      7.072
REMARK  Name = ZINC000031808022
REMARK  1 active torsions:
REMARK  status: ('A' for Active; 'I' for Inactive)
REMARK    1  A    between atoms: C_7  and  C_24
REMARK                            x       y       z     vdW  Elec       q    Type
REMARK                         _______ _______ _______ _____ _____    ______ ____
ROOT
ATOM      1  C   UNL     1     -47.128  -3.417 -33.716  0.00  0.00    +0.000 C 
ATOM      2  C   UNL     1     -46.461  -4.747 -33.769  0.00  0.00    +0.000 A 
ATOM      3  N   UNL     1     -46.774  -5.696 -34.669  0.00  0.00    +0.000 NA
ATOM      4  N   UNL     1     -45.996  -6.740 -34.435  0.00  0.00    +0.000 N 
ATOM      5  C   UNL     1     -45.156  -6.466 -33.411  0.00  0.00    +0.000 A 
ATOM      6  C   UNL     1     -45.443  -5.186 -32.940  0.00  0.00    +0.000 A 
ATOM      7  C   UNL     1     -44.817  -4.354 -31.854  0.00  0.00    +0.000 C 
ATOM      8  S   UNL     1     -44.129  -5.292 -30.454  0.00  0.00    +0.000 S 
ATOM      9  C   UNL     1     -42.738  -5.915 -31.427  0.00  0.00    +0.000 C 
ATOM     10  C   UNL     1     -43.087  -7.227 -32.023  0.00  0.00    +0.000 C 
ATOM     11  O   UNL     1     -42.398  -8.230 -31.705  0.00  0.00    +0.000 OA
ATOM     12  N   UNL     1     -44.145  -7.388 -32.972  0.00  0.00    +0.000 N 
ATOM     13  H   UNL     1     -44.188  -8.278 -33.393  0.00  0.00    +0.000 HD
ATOM     14  C   UNL     1     -46.041  -7.931 -35.235  0.00  0.00    +0.000 A 
ATOM     15  N   UNL     1     -46.255  -7.843 -36.582  0.00  0.00    +0.000 NA
ATOM     16  C   UNL     1     -46.332  -8.963 -37.370  0.00  0.00    +0.000 A 
ATOM     17  N   UNL     1     -46.214 -10.208 -36.820  0.00  0.00    +0.000 NA
ATOM     18  C   UNL     1     -46.015 -10.298 -35.483  0.00  0.00    +0.000 A 
ATOM     19  N   UNL     1     -45.933 -11.422 -34.763  0.00  0.00    +0.000 N 
ATOM     20  C   UNL     1     -45.803 -10.948 -33.494  0.00  0.00    +0.000 A 
ATOM     21  N   UNL     1     -45.808  -9.590 -33.409  0.00  0.00    +0.000 NA
ATOM     22  C   UNL     1     -45.933  -9.211 -34.688  0.00  0.00    +0.000 A 
ATOM     23  H   UNL     1     -45.959 -12.357 -35.072  0.00  0.00    +0.000 HD
ENDROOT
BRANCH   7  24
ATOM     24  C   UNL     1     -43.929  -3.245 -32.353  0.00  0.00    +0.000 A 
ATOM     25  C   UNL     1     -42.876  -3.521 -33.240  0.00  0.00    +0.000 A 
ATOM     26  C   UNL     1     -42.053  -2.493 -33.708  0.00  0.00    +0.000 A 
ATOM     27  C   UNL     1     -42.276  -1.180 -33.293  0.00  0.00    +0.000 A 
ATOM     28  C   UNL     1     -43.322  -0.893 -32.413  0.00  0.00    +0.000 A 
ATOM     29  C   UNL     1     -44.150  -1.917 -31.941  0.00  0.00    +0.000 A 
ATOM     30 CL   UNL     1     -45.456  -1.499 -30.842  0.00  0.00    +0.000 Cl
ENDBRANCH   7  24
TORSDOF 1
ENDMDL
MODEL 3
REMARK VINA RESULT:      -6.5      6.336      8.356
REMARK  Name = ZINC000031808022
REMARK  1 active torsions:
REMARK  status: ('A' for Active; 'I' for Inactive)
REMARK    1  A    between atoms: C_7  and  C_24
REMARK                            x       y       z     vdW  Elec       q    Type
REMARK                         _______ _______ _______ _____ _____    ______ ____
ROOT
ATOM      1  C   UNL     1     -43.880  -0.356 -32.372  0.00  0.00    +0.000 C 
ATOM      2  C   UNL     1     -42.455  -0.785 -32.417  0.00  0.00    +0.000 A 
ATOM      3  N   UNL     1     -41.441  -0.035 -31.951  0.00  0.00    +0.000 NA
ATOM      4  N   UNL     1     -40.322  -0.712 -32.144  0.00  0.00    +0.000 N 
ATOM      5  C   UNL     1     -40.601  -1.912 -32.702  0.00  0.00    +0.000 A 
ATOM      6  C   UNL     1     -41.977  -1.986 -32.913  0.00  0.00    +0.000 A 
ATOM      7  C   UNL     1     -42.848  -3.081 -33.464  0.00  0.00    +0.000 C 
ATOM      8  S   UNL     1     -42.063  -4.146 -34.715  0.00  0.00    +0.000 S 
ATOM      9  C   UNL     1     -41.001  -4.960 -33.499  0.00  0.00    +0.000 C 
ATOM     10  C   UNL     1     -39.701  -4.252 -33.408  0.00  0.00    +0.000 C 
ATOM     11  O   UNL     1     -38.655  -4.885 -33.699  0.00  0.00    +0.000 OA
ATOM     12  N   UNL     1     -39.589  -2.896 -32.968  0.00  0.00    +0.000 N 
ATOM     13  H   UNL     1     -38.664  -2.586 -32.823  0.00  0.00    +0.000 HD
ATOM     14  C   UNL     1     -39.039  -0.216 -31.733  0.00  0.00    +0.000 A 
ATOM     15  N   UNL     1     -38.920   0.496 -30.572  0.00  0.00    +0.000 NA
ATOM     16  C   UNL     1     -37.715   1.008 -30.165  0.00  0.00    +0.000 A 
ATOM     17  N   UNL     1     -36.594   0.833 -30.927  0.00  0.00    +0.000 NA
ATOM     18  C   UNL     1     -36.712   0.140 -32.084  0.00  0.00    +0.000 A 
ATOM     19  N   UNL     1     -35.746  -0.083 -32.983  0.00  0.00    +0.000 N 
ATOM     20  C   UNL     1     -36.408  -0.755 -33.964  0.00  0.00    +0.000 A 
ATOM     21  N   UNL     1     -37.731  -0.945 -33.707  0.00  0.00    +0.000 NA
ATOM     22  C   UNL     1     -37.887  -0.375 -32.504  0.00  0.00    +0.000 A 
ATOM     23  H   UNL     1     -34.796   0.173 -32.945  0.00  0.00    +0.000 HD
ENDROOT
BRANCH   7  24
ATOM     24  C   UNL     1     -43.643  -3.829 -32.425  0.00  0.00    +0.000 A 
ATOM     25  C   UNL     1     -42.990  -4.516 -31.390  0.00  0.00    +0.000 A 
ATOM     26  C   UNL     1     -43.724  -5.208 -30.423  0.00  0.00    +0.000 A 
ATOM     27  C   UNL     1     -45.118  -5.216 -30.482  0.00  0.00    +0.000 A 
ATOM     28  C   UNL     1     -45.778  -4.534 -31.506  0.00  0.00    +0.000 A 
ATOM     29  C   UNL     1     -45.049  -3.840 -32.477  0.00  0.00    +0.000 A 
ATOM     30 CL   UNL     1     -45.930  -2.990 -33.738  0.00  0.00    +0.000 Cl
ENDBRANCH   7  24
TORSDOF 1
ENDMDL
