MODEL 1
REMARK VINA RESULT:      -6.6      0.000      0.000
REMARK  Name = ZINC000009668994 ZINC09668994 MCULE-8076656681 MolPort-002-986-247 PubChem-16479684
REMARK  7 active torsions:
REMARK  status: ('A' for Active; 'I' for Inactive)
REMARK    1  A    between atoms: C_1  and  C_2
REMARK    2  A    between atoms: C_1  and  S_16
REMARK    3  A    between atoms: N_4  and  C_6
REMARK    4  A    between atoms: C_8  and  N_13
REMARK    5  A    between atoms: S_16  and  C_20
REMARK    6  A    between atoms: C_17  and  C_29
REMARK    7  A    between atoms: N_21  and  C_22
REMARK                            x       y       z     vdW  Elec       q    Type
REMARK                         _______ _______ _______ _____ _____    ______ ____
ROOT
ATOM      1  C   UNL     1     -44.214 -18.969 -23.995  0.00  0.00    +0.000 C 
ENDROOT
BRANCH   1   2
ATOM      2  C   UNL     1     -44.939 -19.064 -25.297  0.00  0.00    +0.000 C 
ATOM      3  O   UNL     1     -45.569 -20.121 -25.557  0.00  0.00    +0.000 OA
ATOM      4  N   UNL     1     -44.927 -18.008 -26.268  0.00  0.00    +0.000 N 
ATOM      5  H   UNL     1     -45.227 -18.251 -27.174  0.00  0.00    +0.000 HD
BRANCH   4   6
ATOM      6  C   UNL     1     -44.528 -16.640 -26.078  0.00  0.00    +0.000 A 
ATOM      7  C   UNL     1     -45.441 -15.664 -25.649  0.00  0.00    +0.000 A 
ATOM      8  C   UNL     1     -45.051 -14.328 -25.493  0.00  0.00    +0.000 A 
ATOM      9  C   UNL     1     -43.731 -13.963 -25.784  0.00  0.00    +0.000 A 
ATOM     10  C   UNL     1     -42.815 -14.923 -26.220  0.00  0.00    +0.000 A 
ATOM     11  C   UNL     1     -43.207 -16.256 -26.370  0.00  0.00    +0.000 A 
ATOM     12  C   UNL     1     -42.203 -17.251 -26.844  0.00  0.00    +0.000 C 
BRANCH   8  13
ATOM     13  N   UNL     1     -45.994 -13.350 -25.032  0.00  0.00    +0.000 N 
ATOM     14  O   UNL     1     -46.229 -13.199 -23.683  0.00  0.00    +0.000 OA
ATOM     15  O   UNL     1     -46.594 -12.613 -25.842  0.00  0.00    +0.000 OA
ENDBRANCH   8  13
ENDBRANCH   4   6
ENDBRANCH   1   2
BRANCH   1  16
ATOM     16  S   UNL     1     -45.239 -18.117 -22.760  0.00  0.00    +0.000 S 
BRANCH  16  20
ATOM     17  C   UNL     1     -43.605 -19.425 -19.509  0.00  0.00    +0.000 A 
ATOM     18  N   UNL     1     -43.019 -20.242 -20.405  0.00  0.00    +0.000 NA
ATOM     19  N   UNL     1     -43.507 -19.929 -21.596  0.00  0.00    +0.000 NA
ATOM     20  C   UNL     1     -44.391 -18.931 -21.406  0.00  0.00    +0.000 A 
ATOM     21  N   UNL     1     -44.479 -18.581 -20.103  0.00  0.00    +0.000 N 
BRANCH  21  22
ATOM     22  C   UNL     1     -45.291 -17.555 -19.494  0.00  0.00    +0.000 A 
ATOM     23  C   UNL     1     -46.672 -17.745 -19.324  0.00  0.00    +0.000 A 
ATOM     24  C   UNL     1     -47.458 -16.752 -18.730  0.00  0.00    +0.000 A 
ATOM     25  C   UNL     1     -46.871 -15.556 -18.305  0.00  0.00    +0.000 A 
ATOM     26  C   UNL     1     -45.499 -15.354 -18.476  0.00  0.00    +0.000 A 
ATOM     27  C   UNL     1     -44.715 -16.348 -19.067  0.00  0.00    +0.000 A 
ENDBRANCH  21  22
BRANCH  17  29
ATOM     28  C   UNL     1     -42.086 -18.644 -17.729  0.00  0.00    +0.000 C 
ATOM     29  C   UNL     1     -43.314 -19.475 -18.045  0.00  0.00    +0.000 C 
ENDBRANCH  17  29
ENDBRANCH  16  20
ENDBRANCH   1  16
TORSDOF 7
ENDMDL
MODEL 2
REMARK VINA RESULT:      -6.1      2.954      7.409
REMARK  Name = ZINC000009668994 ZINC09668994 MCULE-8076656681 MolPort-002-986-247 PubChem-16479684
REMARK  7 active torsions:
REMARK  status: ('A' for Active; 'I' for Inactive)
REMARK    1  A    between atoms: C_1  and  C_2
REMARK    2  A    between atoms: C_1  and  S_16
REMARK    3  A    between atoms: N_4  and  C_6
REMARK    4  A    between atoms: C_8  and  N_13
REMARK    5  A    between atoms: S_16  and  C_20
REMARK    6  A    between atoms: C_17  and  C_29
REMARK    7  A    between atoms: N_21  and  C_22
REMARK                            x       y       z     vdW  Elec       q    Type
REMARK                         _______ _______ _______ _____ _____    ______ ____
ROOT
ATOM      1  C   UNL     1     -43.419 -16.466 -21.653  0.00  0.00    +0.000 C 
ENDROOT
BRANCH   1   2
ATOM      2  C   UNL     1     -43.050 -17.398 -20.546  0.00  0.00    +0.000 C 
ATOM      3  O   UNL     1     -41.937 -17.982 -20.599  0.00  0.00    +0.000 OA
ATOM      4  N   UNL     1     -43.922 -17.669 -19.440  0.00  0.00    +0.000 N 
ATOM      5  H   UNL     1     -43.699 -18.460 -18.896  0.00  0.00    +0.000 HD
BRANCH   4   6
ATOM      6  C   UNL     1     -45.083 -16.926 -19.029  0.00  0.00    +0.000 A 
ATOM      7  C   UNL     1     -44.968 -15.687 -18.381  0.00  0.00    +0.000 A 
ATOM      8  C   UNL     1     -46.103 -14.982 -17.960  0.00  0.00    +0.000 A 
ATOM      9  C   UNL     1     -47.370 -15.535 -18.181  0.00  0.00    +0.000 A 
ATOM     10  C   UNL     1     -47.499 -16.772 -18.817  0.00  0.00    +0.000 A 
ATOM     11  C   UNL     1     -46.363 -17.469 -19.240  0.00  0.00    +0.000 A 
ATOM     12  C   UNL     1     -46.539 -18.789 -19.909  0.00  0.00    +0.000 C 
BRANCH   8  13
ATOM     13  N   UNL     1     -45.964 -13.707 -17.319  0.00  0.00    +0.000 N 
ATOM     14  O   UNL     1     -46.315 -12.556 -17.988  0.00  0.00    +0.000 OA
ATOM     15  O   UNL     1     -45.545 -13.627 -16.146  0.00  0.00    +0.000 OA
ENDBRANCH   8  13
ENDBRANCH   4   6
ENDBRANCH   1   2
BRANCH   1  16
ATOM     16  S   UNL     1     -42.070 -16.360 -22.866  0.00  0.00    +0.000 S 
BRANCH  16  20
ATOM     17  C   UNL     1     -44.387 -14.756 -25.514  0.00  0.00    +0.000 A 
ATOM     18  N   UNL     1     -43.766 -13.653 -25.055  0.00  0.00    +0.000 NA
ATOM     19  N   UNL     1     -42.936 -14.043 -24.099  0.00  0.00    +0.000 NA
ATOM     20  C   UNL     1     -43.072 -15.378 -23.983  0.00  0.00    +0.000 A 
ATOM     21  N   UNL     1     -43.976 -15.867 -24.862  0.00  0.00    +0.000 N 
BRANCH  21  22
ATOM     22  C   UNL     1     -44.391 -17.234 -25.065  0.00  0.00    +0.000 A 
ATOM     23  C   UNL     1     -43.677 -18.076 -25.934  0.00  0.00    +0.000 A 
ATOM     24  C   UNL     1     -44.077 -19.402 -26.127  0.00  0.00    +0.000 A 
ATOM     25  C   UNL     1     -45.199 -19.898 -25.457  0.00  0.00    +0.000 A 
ATOM     26  C   UNL     1     -45.921 -19.068 -24.596  0.00  0.00    +0.000 A 
ATOM     27  C   UNL     1     -45.518 -17.745 -24.402  0.00  0.00    +0.000 A 
ENDBRANCH  21  22
BRANCH  17  29
ATOM     28  C   UNL     1     -44.728 -14.685 -27.956  0.00  0.00    +0.000 C 
ATOM     29  C   UNL     1     -45.409 -14.725 -26.603  0.00  0.00    +0.000 C 
ENDBRANCH  17  29
ENDBRANCH  16  20
ENDBRANCH   1  16
TORSDOF 7
ENDMDL
MODEL 3
REMARK VINA RESULT:      -6.1     11.635     15.341
REMARK  Name = ZINC000009668994 ZINC09668994 MCULE-8076656681 MolPort-002-986-247 PubChem-16479684
REMARK  7 active torsions:
REMARK  status: ('A' for Active; 'I' for Inactive)
REMARK    1  A    between atoms: C_1  and  C_2
REMARK    2  A    between atoms: C_1  and  S_16
REMARK    3  A    between atoms: N_4  and  C_6
REMARK    4  A    between atoms: C_8  and  N_13
REMARK    5  A    between atoms: S_16  and  C_20
REMARK    6  A    between atoms: C_17  and  C_29
REMARK    7  A    between atoms: N_21  and  C_22
REMARK                            x       y       z     vdW  Elec       q    Type
REMARK                         _______ _______ _______ _____ _____    ______ ____
ROOT
ATOM      1  C   UNL     1     -43.763  -5.669 -31.634  0.00  0.00    +0.000 C 
ENDROOT
BRANCH   1   2
ATOM      2  C   UNL     1     -43.936  -5.607 -33.116  0.00  0.00    +0.000 C 
ATOM      3  O   UNL     1     -44.309  -6.646 -33.720  0.00  0.00    +0.000 OA
ATOM      4  N   UNL     1     -43.674  -4.420 -33.878  0.00  0.00    +0.000 N 
ATOM      5  H   UNL     1     -43.588  -4.541 -34.851  0.00  0.00    +0.000 HD
BRANCH   4   6
ATOM      6  C   UNL     1     -43.521  -3.076 -33.390  0.00  0.00    +0.000 A 
ATOM      7  C   UNL     1     -42.259  -2.551 -33.073  0.00  0.00    +0.000 A 
ATOM      8  C   UNL     1     -42.121  -1.250 -32.573  0.00  0.00    +0.000 A 
ATOM      9  C   UNL     1     -43.268  -0.469 -32.376  0.00  0.00    +0.000 A 
ATOM     10  C   UNL     1     -44.530  -0.983 -32.679  0.00  0.00    +0.000 A 
ATOM     11  C   UNL     1     -44.662  -2.280 -33.183  0.00  0.00    +0.000 A 
ATOM     12  C   UNL     1     -46.027  -2.796 -33.488  0.00  0.00    +0.000 C 
BRANCH   8  13
ATOM     13  N   UNL     1     -40.821  -0.724 -32.276  0.00  0.00    +0.000 N 
ATOM     14  O   UNL     1     -40.688   0.353 -31.428  0.00  0.00    +0.000 OA
ATOM     15  O   UNL     1     -39.797  -1.247 -32.763  0.00  0.00    +0.000 OA
ENDBRANCH   8  13
ENDBRANCH   4   6
ENDBRANCH   1   2
BRANCH   1  16
ATOM     16  S   UNL     1     -44.532  -7.173 -30.969  0.00  0.00    +0.000 S 
BRANCH  16  20
ATOM     17  C   UNL     1     -46.525  -5.359 -28.195  0.00  0.00    +0.000 A 
ATOM     18  N   UNL     1     -47.306  -5.084 -29.257  0.00  0.00    +0.000 NA
ATOM     19  N   UNL     1     -46.730  -5.630 -30.317  0.00  0.00    +0.000 NA
ATOM     20  C   UNL     1     -45.600  -6.222 -29.887  0.00  0.00    +0.000 A 
ATOM     21  N   UNL     1     -45.436  -6.077 -28.552  0.00  0.00    +0.000 N 
BRANCH  21  22
ATOM     22  C   UNL     1     -44.373  -6.574 -27.713  0.00  0.00    +0.000 A 
ATOM     23  C   UNL     1     -43.048  -6.154 -27.914  0.00  0.00    +0.000 A 
ATOM     24  C   UNL     1     -42.018  -6.632 -27.096  0.00  0.00    +0.000 A 
ATOM     25  C   UNL     1     -42.304  -7.541 -26.073  0.00  0.00    +0.000 A 
ATOM     26  C   UNL     1     -43.617  -7.972 -25.869  0.00  0.00    +0.000 A 
ATOM     27  C   UNL     1     -44.643  -7.491 -26.684  0.00  0.00    +0.000 A 
ENDBRANCH  21  22
BRANCH  17  29
ATOM     28  C   UNL     1     -47.335  -3.473 -26.828  0.00  0.00    +0.000 C 
ATOM     29  C   UNL     1     -46.841  -4.906 -26.808  0.00  0.00    +0.000 C 
ENDBRANCH  17  29
ENDBRANCH  16  20
ENDBRANCH   1  16
TORSDOF 7
ENDMDL
