MODEL 1
REMARK VINA RESULT:      -6.8      0.000      0.000
REMARK  Name = ZINC000031807721
REMARK  2 active torsions:
REMARK  status: ('A' for Active; 'I' for Inactive)
REMARK    1  A    between atoms: C_7  and  C_24
REMARK    2  A    between atoms: C_27  and  O_28
REMARK                            x       y       z     vdW  Elec       q    Type
REMARK                         _______ _______ _______ _____ _____    ______ ____
ROOT
ATOM      1  C   UNL     1     -42.927  -5.782 -34.943  0.00  0.00    +0.000 C 
ATOM      2  C   UNL     1     -43.736  -6.191 -33.761  0.00  0.00    +0.000 A 
ATOM      3  N   UNL     1     -43.579  -7.365 -33.125  0.00  0.00    +0.000 NA
ATOM      4  N   UNL     1     -44.445  -7.399 -32.126  0.00  0.00    +0.000 N 
ATOM      5  C   UNL     1     -45.144  -6.240 -32.086  0.00  0.00    +0.000 A 
ATOM      6  C   UNL     1     -44.723  -5.438 -33.147  0.00  0.00    +0.000 A 
ATOM      7  C   UNL     1     -45.114  -4.047 -33.562  0.00  0.00    +0.000 C 
ATOM      8  S   UNL     1     -46.845  -3.603 -33.221  0.00  0.00    +0.000 S 
ATOM      9  C   UNL     1     -46.551  -3.464 -31.442  0.00  0.00    +0.000 C 
ATOM     10  C   UNL     1     -46.841  -4.759 -30.778  0.00  0.00    +0.000 C 
ATOM     11  O   UNL     1     -47.744  -4.792 -29.903  0.00  0.00    +0.000 OA
ATOM     12  N   UNL     1     -46.111  -5.956 -31.062  0.00  0.00    +0.000 N 
ATOM     13  H   UNL     1     -46.305  -6.709 -30.458  0.00  0.00    +0.000 HD
ATOM     14  C   UNL     1     -44.530  -8.503 -31.214  0.00  0.00    +0.000 A 
ATOM     15  N   UNL     1     -43.392  -9.131 -30.791  0.00  0.00    +0.000 NA
ATOM     16  C   UNL     1     -43.438 -10.208 -29.944  0.00  0.00    +0.000 A 
ATOM     17  N   UNL     1     -44.639 -10.695 -29.507  0.00  0.00    +0.000 NA
ATOM     18  C   UNL     1     -45.768 -10.084 -29.936  0.00  0.00    +0.000 A 
ATOM     19  N   UNL     1     -47.027 -10.450 -29.665  0.00  0.00    +0.000 N 
ATOM     20  C   UNL     1     -47.755  -9.554 -30.385  0.00  0.00    +0.000 A 
ATOM     21  N   UNL     1     -46.999  -8.664 -31.085  0.00  0.00    +0.000 NA
ATOM     22  C   UNL     1     -45.747  -9.021 -30.768  0.00  0.00    +0.000 A 
ATOM     23  H   UNL     1     -47.345 -11.183 -29.090  0.00  0.00    +0.000 HD
ENDROOT
BRANCH   7  24
ATOM     24  C   UNL     1     -44.126  -2.978 -33.182  0.00  0.00    +0.000 A 
ATOM     25  C   UNL     1     -44.370  -1.657 -33.576  0.00  0.00    +0.000 A 
ATOM     26  C   UNL     1     -43.475  -0.641 -33.228  0.00  0.00    +0.000 A 
ATOM     27  C   UNL     1     -42.333  -0.941 -32.482  0.00  0.00    +0.000 A 
ATOM     28  C   UNL     1     -42.084  -2.256 -32.081  0.00  0.00    +0.000 A 
ATOM     29  C   UNL     1     -42.978  -3.272 -32.429  0.00  0.00    +0.000 A 
BRANCH  27  30
ATOM     30  O   UNL     1     -41.445   0.069 -32.137  0.00  0.00    +0.000 OA
ATOM     31  H   UNL     1     -41.506   0.908 -32.550  0.00  0.00    +0.000 HD
ENDBRANCH  27  30
ENDBRANCH   7  24
TORSDOF 2
ENDMDL
MODEL 2
REMARK VINA RESULT:      -6.7      2.627      3.150
REMARK  Name = ZINC000031807721
REMARK  2 active torsions:
REMARK  status: ('A' for Active; 'I' for Inactive)
REMARK    1  A    between atoms: C_7  and  C_24
REMARK    2  A    between atoms: C_27  and  O_28
REMARK                            x       y       z     vdW  Elec       q    Type
REMARK                         _______ _______ _______ _____ _____    ______ ____
ROOT
ATOM      1  C   UNL     1     -47.408  -4.493 -34.438  0.00  0.00    +0.000 C 
ATOM      2  C   UNL     1     -46.666  -5.637 -33.839  0.00  0.00    +0.000 A 
ATOM      3  N   UNL     1     -46.563  -6.842 -34.426  0.00  0.00    +0.000 NA
ATOM      4  N   UNL     1     -45.837  -7.614 -33.633  0.00  0.00    +0.000 N 
ATOM      5  C   UNL     1     -45.438  -6.909 -32.549  0.00  0.00    +0.000 A 
ATOM      6  C   UNL     1     -45.975  -5.625 -32.639  0.00  0.00    +0.000 A 
ATOM      7  C   UNL     1     -45.832  -4.419 -31.753  0.00  0.00    +0.000 C 
ATOM      8  S   UNL     1     -45.644  -4.787 -29.981  0.00  0.00    +0.000 S 
ATOM      9  C   UNL     1     -43.948  -5.380 -30.195  0.00  0.00    +0.000 C 
ATOM     10  C   UNL     1     -43.948  -6.847 -30.413  0.00  0.00    +0.000 C 
ATOM     11  O   UNL     1     -43.339  -7.573 -29.586  0.00  0.00    +0.000 OA
ATOM     12  N   UNL     1     -44.575  -7.463 -31.542  0.00  0.00    +0.000 N 
ATOM     13  H   UNL     1     -44.385  -8.423 -31.645  0.00  0.00    +0.000 HD
ATOM     14  C   UNL     1     -45.501  -8.967 -33.969  0.00  0.00    +0.000 A 
ATOM     15  N   UNL     1     -45.188  -9.296 -35.258  0.00  0.00    +0.000 NA
ATOM     16  C   UNL     1     -44.891 -10.584 -35.619  0.00  0.00    +0.000 A 
ATOM     17  N   UNL     1     -44.915 -11.587 -34.690  0.00  0.00    +0.000 NA
ATOM     18  C   UNL     1     -45.238 -11.267 -33.415  0.00  0.00    +0.000 A 
ATOM     19  N   UNL     1     -45.369 -12.115 -32.388  0.00  0.00    +0.000 N 
ATOM     20  C   UNL     1     -45.762 -11.293 -31.377  0.00  0.00    +0.000 A 
ATOM     21  N   UNL     1     -45.883  -9.987 -31.743  0.00  0.00    +0.000 NA
ATOM     22  C   UNL     1     -45.532 -10.005 -33.036  0.00  0.00    +0.000 A 
ATOM     23  H   UNL     1     -45.218 -13.087 -32.368  0.00  0.00    +0.000 HD
ENDROOT
BRANCH   7  24
ATOM     24  C   UNL     1     -44.874  -3.376 -32.262  0.00  0.00    +0.000 A 
ATOM     25  C   UNL     1     -44.951  -2.076 -31.751  0.00  0.00    +0.000 A 
ATOM     26  C   UNL     1     -44.067  -1.090 -32.197  0.00  0.00    +0.000 A 
ATOM     27  C   UNL     1     -43.099  -1.400 -33.156  0.00  0.00    +0.000 A 
ATOM     28  C   UNL     1     -43.013  -2.697 -33.668  0.00  0.00    +0.000 A 
ATOM     29  C   UNL     1     -43.897  -3.683 -33.223  0.00  0.00    +0.000 A 
BRANCH  27  30
ATOM     30  O   UNL     1     -42.222  -0.419 -33.599  0.00  0.00    +0.000 OA
ATOM     31  H   UNL     1     -41.500  -0.159 -33.061  0.00  0.00    +0.000 HD
ENDBRANCH  27  30
ENDBRANCH   7  24
TORSDOF 2
ENDMDL
MODEL 3
REMARK VINA RESULT:      -6.6      3.248      7.169
REMARK  Name = ZINC000031807721
REMARK  2 active torsions:
REMARK  status: ('A' for Active; 'I' for Inactive)
REMARK    1  A    between atoms: C_7  and  C_24
REMARK    2  A    between atoms: C_27  and  O_28
REMARK                            x       y       z     vdW  Elec       q    Type
REMARK                         _______ _______ _______ _____ _____    ______ ____
ROOT
ATOM      1  C   UNL     1     -42.561  -6.868 -27.433  0.00  0.00    +0.000 C 
ATOM      2  C   UNL     1     -43.046  -6.194 -28.670  0.00  0.00    +0.000 A 
ATOM      3  N   UNL     1     -42.240  -5.843 -29.687  0.00  0.00    +0.000 NA
ATOM      4  N   UNL     1     -42.994  -5.279 -30.619  0.00  0.00    +0.000 N 
ATOM      5  C   UNL     1     -44.289  -5.291 -30.229  0.00  0.00    +0.000 A 
ATOM      6  C   UNL     1     -44.359  -5.861 -28.957  0.00  0.00    +0.000 A 
ATOM      7  C   UNL     1     -45.529  -6.167 -28.064  0.00  0.00    +0.000 C 
ATOM      8  S   UNL     1     -46.919  -5.000 -28.195  0.00  0.00    +0.000 S 
ATOM      9  C   UNL     1     -47.420  -5.642 -29.810  0.00  0.00    +0.000 C 
ATOM     10  C   UNL     1     -46.772  -4.858 -30.890  0.00  0.00    +0.000 C 
ATOM     11  O   UNL     1     -47.506  -4.242 -31.703  0.00  0.00    +0.000 OA
ATOM     12  N   UNL     1     -45.353  -4.809 -31.067  0.00  0.00    +0.000 N 
ATOM     13  H   UNL     1     -45.056  -4.373 -31.898  0.00  0.00    +0.000 HD
ATOM     14  C   UNL     1     -42.459  -4.811 -31.865  0.00  0.00    +0.000 A 
ATOM     15  N   UNL     1     -41.483  -5.524 -32.503  0.00  0.00    +0.000 NA
ATOM     16  C   UNL     1     -40.929  -5.089 -33.680  0.00  0.00    +0.000 A 
ATOM     17  N   UNL     1     -41.334  -3.911 -34.243  0.00  0.00    +0.000 NA
ATOM     18  C   UNL     1     -42.291  -3.196 -33.605  0.00  0.00    +0.000 A 
ATOM     19  N   UNL     1     -42.770  -2.000 -33.970  0.00  0.00    +0.000 N 
ATOM     20  C   UNL     1     -43.642  -1.714 -32.964  0.00  0.00    +0.000 A 
ATOM     21  N   UNL     1     -43.711  -2.677 -32.004  0.00  0.00    +0.000 NA
ATOM     22  C   UNL     1     -42.852  -3.604 -32.447  0.00  0.00    +0.000 A 
ATOM     23  H   UNL     1     -42.549  -1.464 -34.765  0.00  0.00    +0.000 HD
ENDROOT
BRANCH   7  24
ATOM     24  C   UNL     1     -45.948  -7.611 -28.050  0.00  0.00    +0.000 A 
ATOM     25  C   UNL     1     -46.638  -8.108 -26.939  0.00  0.00    +0.000 A 
ATOM     26  C   UNL     1     -47.049  -9.443 -26.903  0.00  0.00    +0.000 A 
ATOM     27  C   UNL     1     -46.773 -10.289 -27.981  0.00  0.00    +0.000 A 
ATOM     28  C   UNL     1     -46.087  -9.800 -29.095  0.00  0.00    +0.000 A 
ATOM     29  C   UNL     1     -45.675  -8.466 -29.132  0.00  0.00    +0.000 A 
BRANCH  27  30
ATOM     30  O   UNL     1     -47.180 -11.616 -27.944  0.00  0.00    +0.000 OA
ATOM     31  H   UNL     1     -47.412 -12.013 -27.127  0.00  0.00    +0.000 HD
ENDBRANCH  27  30
ENDBRANCH   7  24
TORSDOF 2
ENDMDL
