MODEL 1
REMARK VINA RESULT:      -7.7      0.000      0.000
REMARK  Name = ZINC000217755306
REMARK  10 active torsions:
REMARK  status: ('A' for Active; 'I' for Inactive)
REMARK    1  A    between atoms: C_1  and  C_2
REMARK    2  A    between atoms: C_1  and  C_15
REMARK    3  A    between atoms: C_1  and  C_25
REMARK    4  A    between atoms: C_3  and  O_4
REMARK    5  A    between atoms: C_25  and  C_27
REMARK    6  A    between atoms: N_28  and  C_30
REMARK    7  A    between atoms: C_30  and  C_31
REMARK    8  A    between atoms: C_31  and  C_32
REMARK    9  A    between atoms: C_35  and  O_36
REMARK   10  A    between atoms: C_37  and  O_38
REMARK                            x       y       z     vdW  Elec       q    Type
REMARK                         _______ _______ _______ _____ _____    ______ ____
ROOT
ATOM      1  C   UNL     1     -46.039  -5.643 -30.097  0.00  0.00    +0.000 C 
ENDROOT
BRANCH   1   2
ATOM      2  C   UNL     1     -45.063  -4.660 -30.695  0.00  0.00    +0.000 A 
ATOM      3  C   UNL     1     -43.729  -5.045 -30.862  0.00  0.00    +0.000 A 
ATOM      4  N   UNL     1     -42.829  -4.175 -31.381  0.00  0.00    +0.000 NA
ATOM      5  C   UNL     1     -43.191  -2.921 -31.747  0.00  0.00    +0.000 A 
ATOM      6  C   UNL     1     -42.227  -2.059 -32.275  0.00  0.00    +0.000 A 
ATOM      7  C   UNL     1     -42.592  -0.769 -32.654  0.00  0.00    +0.000 A 
ATOM      8  C   UNL     1     -43.913  -0.353 -32.504  0.00  0.00    +0.000 A 
ATOM      9  C   UNL     1     -44.853  -1.237 -31.973  0.00  0.00    +0.000 A 
ATOM     10  N   UNL     1     -44.493  -2.503 -31.601  0.00  0.00    +0.000 N 
ATOM     11  C   UNL     1     -45.432  -3.356 -31.082  0.00  0.00    +0.000 A 
ATOM     12  O   UNL     1     -46.632  -2.977 -30.955  0.00  0.00    +0.000 OA
BRANCH   3  13
ATOM     13  O   UNL     1     -43.311  -6.321 -30.501  0.00  0.00    +0.000 OA
ATOM     14  H   UNL     1     -42.537  -6.432 -29.985  0.00  0.00    +0.000 HD
ENDBRANCH   3  13
ENDBRANCH   1   2
BRANCH   1  15
ATOM     15  C   UNL     1     -46.400  -5.328 -28.666  0.00  0.00    +0.000 A 
ATOM     16  C   UNL     1     -47.255  -4.258 -28.375  0.00  0.00    +0.000 A 
ATOM     17  C   UNL     1     -47.595  -3.976 -27.051  0.00  0.00    +0.000 A 
ATOM     18  N   UNL     1     -47.101  -4.738 -26.041  0.00  0.00    +0.000 NA
ATOM     19  C   UNL     1     -46.271  -5.788 -26.281  0.00  0.00    +0.000 A 
ATOM     20  C   UNL     1     -45.789  -6.552 -25.214  0.00  0.00    +0.000 A 
ATOM     21  C   UNL     1     -44.940  -7.636 -25.456  0.00  0.00    +0.000 A 
ATOM     22  C   UNL     1     -44.571  -7.960 -26.765  0.00  0.00    +0.000 A 
ATOM     23  C   UNL     1     -45.049  -7.202 -27.836  0.00  0.00    +0.000 A 
ATOM     24  C   UNL     1     -45.900  -6.110 -27.608  0.00  0.00    +0.000 A 
ENDBRANCH   1  15
BRANCH   1  25
ATOM     25  C   UNL     1     -47.248  -5.915 -30.990  0.00  0.00    +0.000 C 
BRANCH  25  27
ATOM     26  O   UNL     1     -47.179  -7.777 -32.471  0.00  0.00    +0.000 OA
ATOM     27  C   UNL     1     -47.360  -7.370 -31.293  0.00  0.00    +0.000 C 
ATOM     28  N   UNL     1     -47.627  -8.293 -30.235  0.00  0.00    +0.000 N 
ATOM     29  H   UNL     1     -47.755  -7.943 -29.324  0.00  0.00    +0.000 HD
BRANCH  28  30
ATOM     30  C   UNL     1     -47.717  -9.729 -30.451  0.00  0.00    +0.000 C 
BRANCH  30  31
ATOM     31  C   UNL     1     -46.355 -10.373 -30.248  0.00  0.00    +0.000 C 
BRANCH  31  32
ATOM     32  C   UNL     1     -46.383 -11.303 -29.085  0.00  0.00    +0.000 A 
ATOM     33  C   UNL     1     -46.248 -12.684 -29.274  0.00  0.00    +0.000 A 
ATOM     34  C   UNL     1     -46.260 -13.546 -28.174  0.00  0.00    +0.000 A 
ATOM     35  C   UNL     1     -46.404 -13.031 -26.882  0.00  0.00    +0.000 A 
ATOM     36  C   UNL     1     -46.534 -11.650 -26.690  0.00  0.00    +0.000 A 
ATOM     37  C   UNL     1     -46.520 -10.789 -27.791  0.00  0.00    +0.000 A 
BRANCH  36  38
ATOM     38  O   UNL     1     -46.674 -11.127 -25.411  0.00  0.00    +0.000 OA
ATOM     39  H   UNL     1     -46.673 -10.199 -25.281  0.00  0.00    +0.000 HD
ENDBRANCH  36  38
BRANCH  35  40
ATOM     40  O   UNL     1     -46.417 -13.896 -25.794  0.00  0.00    +0.000 OA
ATOM     41  H   UNL     1     -45.954 -14.710 -25.838  0.00  0.00    +0.000 HD
ENDBRANCH  35  40
ENDBRANCH  31  32
ENDBRANCH  30  31
ENDBRANCH  28  30
ENDBRANCH  25  27
ENDBRANCH   1  25
TORSDOF 10
ENDMDL
MODEL 2
REMARK VINA RESULT:      -7.7      0.899      1.874
REMARK  Name = ZINC000217755306
REMARK  10 active torsions:
REMARK  status: ('A' for Active; 'I' for Inactive)
REMARK    1  A    between atoms: C_1  and  C_2
REMARK    2  A    between atoms: C_1  and  C_15
REMARK    3  A    between atoms: C_1  and  C_25
REMARK    4  A    between atoms: C_3  and  O_4
REMARK    5  A    between atoms: C_25  and  C_27
REMARK    6  A    between atoms: N_28  and  C_30
REMARK    7  A    between atoms: C_30  and  C_31
REMARK    8  A    between atoms: C_31  and  C_32
REMARK    9  A    between atoms: C_35  and  O_36
REMARK   10  A    between atoms: C_37  and  O_38
REMARK                            x       y       z     vdW  Elec       q    Type
REMARK                         _______ _______ _______ _____ _____    ______ ____
ROOT
ATOM      1  C   UNL     1     -45.978  -5.795 -30.417  0.00  0.00    +0.000 C 
ENDROOT
BRANCH   1   2
ATOM      2  C   UNL     1     -45.484  -4.449 -30.888  0.00  0.00    +0.000 A 
ATOM      3  C   UNL     1     -46.383  -3.380 -30.949  0.00  0.00    +0.000 A 
ATOM      4  N   UNL     1     -45.969  -2.165 -31.384  0.00  0.00    +0.000 NA
ATOM      5  C   UNL     1     -44.687  -1.954 -31.770  0.00  0.00    +0.000 A 
ATOM      6  C   UNL     1     -44.307  -0.685 -32.213  0.00  0.00    +0.000 A 
ATOM      7  C   UNL     1     -42.991  -0.462 -32.610  0.00  0.00    +0.000 A 
ATOM      8  C   UNL     1     -42.068  -1.503 -32.560  0.00  0.00    +0.000 A 
ATOM      9  C   UNL     1     -42.477  -2.760 -32.112  0.00  0.00    +0.000 A 
ATOM     10  N   UNL     1     -43.770  -2.979 -31.723  0.00  0.00    +0.000 N 
ATOM     11  C   UNL     1     -44.151  -4.221 -31.287  0.00  0.00    +0.000 A 
ATOM     12  O   UNL     1     -43.308  -5.161 -31.235  0.00  0.00    +0.000 OA
BRANCH   3  13
ATOM     13  O   UNL     1     -47.709  -3.548 -30.564  0.00  0.00    +0.000 OA
ATOM     14  H   UNL     1     -48.241  -4.195 -30.985  0.00  0.00    +0.000 HD
ENDBRANCH   3  13
ENDBRANCH   1   2
BRANCH   1  15
ATOM     15  C   UNL     1     -45.886  -5.972 -28.921  0.00  0.00    +0.000 A 
ATOM     16  C   UNL     1     -46.669  -5.184 -28.069  0.00  0.00    +0.000 A 
ATOM     17  C   UNL     1     -46.589  -5.358 -26.687  0.00  0.00    +0.000 A 
ATOM     18  N   UNL     1     -45.755  -6.293 -26.162  0.00  0.00    +0.000 NA
ATOM     19  C   UNL     1     -44.981  -7.081 -26.954  0.00  0.00    +0.000 A 
ATOM     20  C   UNL     1     -44.141  -8.037 -26.376  0.00  0.00    +0.000 A 
ATOM     21  C   UNL     1     -43.347  -8.854 -27.186  0.00  0.00    +0.000 A 
ATOM     22  C   UNL     1     -43.391  -8.719 -28.577  0.00  0.00    +0.000 A 
ATOM     23  C   UNL     1     -44.229  -7.767 -29.162  0.00  0.00    +0.000 A 
ATOM     24  C   UNL     1     -45.030  -6.940 -28.361  0.00  0.00    +0.000 A 
ENDBRANCH   1  15
BRANCH   1  25
ATOM     25  C   UNL     1     -47.336  -6.178 -30.999  0.00  0.00    +0.000 C 
BRANCH  25  27
ATOM     26  O   UNL     1     -47.176  -8.034 -32.481  0.00  0.00    +0.000 OA
ATOM     27  C   UNL     1     -47.384  -7.637 -31.304  0.00  0.00    +0.000 C 
ATOM     28  N   UNL     1     -47.620  -8.572 -30.249  0.00  0.00    +0.000 N 
ATOM     29  H   UNL     1     -47.770  -8.229 -29.339  0.00  0.00    +0.000 HD
BRANCH  28  30
ATOM     30  C   UNL     1     -47.646 -10.010 -30.467  0.00  0.00    +0.000 C 
BRANCH  30  31
ATOM     31  C   UNL     1     -46.273 -10.603 -30.199  0.00  0.00    +0.000 C 
BRANCH  31  32
ATOM     32  C   UNL     1     -46.296 -11.445 -28.971  0.00  0.00    +0.000 A 
ATOM     33  C   UNL     1     -46.144 -12.834 -29.056  0.00  0.00    +0.000 A 
ATOM     34  C   UNL     1     -46.151 -13.614 -27.896  0.00  0.00    +0.000 A 
ATOM     35  C   UNL     1     -46.308 -13.006 -26.646  0.00  0.00    +0.000 A 
ATOM     36  C   UNL     1     -46.454 -11.616 -26.557  0.00  0.00    +0.000 A 
ATOM     37  C   UNL     1     -46.445 -10.838 -27.719  0.00  0.00    +0.000 A 
BRANCH  36  38
ATOM     38  O   UNL     1     -46.606 -11.002 -25.321  0.00  0.00    +0.000 OA
ATOM     39  H   UNL     1     -46.754 -11.522 -24.554  0.00  0.00    +0.000 HD
ENDBRANCH  36  38
BRANCH  35  40
ATOM     40  O   UNL     1     -46.315 -13.788 -25.498  0.00  0.00    +0.000 OA
ATOM     41  H   UNL     1     -45.813 -13.529 -24.750  0.00  0.00    +0.000 HD
ENDBRANCH  35  40
ENDBRANCH  31  32
ENDBRANCH  30  31
ENDBRANCH  28  30
ENDBRANCH  25  27
ENDBRANCH   1  25
TORSDOF 10
ENDMDL
MODEL 3
REMARK VINA RESULT:      -7.3      3.359      6.878
REMARK  Name = ZINC000217755306
REMARK  10 active torsions:
REMARK  status: ('A' for Active; 'I' for Inactive)
REMARK    1  A    between atoms: C_1  and  C_2
REMARK    2  A    between atoms: C_1  and  C_15
REMARK    3  A    between atoms: C_1  and  C_25
REMARK    4  A    between atoms: C_3  and  O_4
REMARK    5  A    between atoms: C_25  and  C_27
REMARK    6  A    between atoms: N_28  and  C_30
REMARK    7  A    between atoms: C_30  and  C_31
REMARK    8  A    between atoms: C_31  and  C_32
REMARK    9  A    between atoms: C_35  and  O_36
REMARK   10  A    between atoms: C_37  and  O_38
REMARK                            x       y       z     vdW  Elec       q    Type
REMARK                         _______ _______ _______ _____ _____    ______ ____
ROOT
ATOM      1  C   UNL     1     -45.587  -5.686 -30.673  0.00  0.00    +0.000 C 
ENDROOT
BRANCH   1   2
ATOM      2  C   UNL     1     -45.150  -4.305 -31.096  0.00  0.00    +0.000 A 
ATOM      3  C   UNL     1     -46.087  -3.267 -31.094  0.00  0.00    +0.000 A 
ATOM      4  N   UNL     1     -45.724  -2.021 -31.486  0.00  0.00    +0.000 NA
ATOM      5  C   UNL     1     -44.458  -1.749 -31.886  0.00  0.00    +0.000 A 
ATOM      6  C   UNL     1     -44.132  -0.450 -32.282  0.00  0.00    +0.000 A 
ATOM      7  C   UNL     1     -42.832  -0.163 -32.694  0.00  0.00    +0.000 A 
ATOM      8  C   UNL     1     -41.873  -1.173 -32.706  0.00  0.00    +0.000 A 
ATOM      9  C   UNL     1     -42.229  -2.461 -32.304  0.00  0.00    +0.000 A 
ATOM     10  N   UNL     1     -43.505  -2.741 -31.901  0.00  0.00    +0.000 N 
ATOM     11  C   UNL     1     -43.834  -4.013 -31.509  0.00  0.00    +0.000 A 
ATOM     12  O   UNL     1     -42.958  -4.924 -31.513  0.00  0.00    +0.000 OA
BRANCH   3  13
ATOM     13  O   UNL     1     -47.398  -3.498 -30.692  0.00  0.00    +0.000 OA
ATOM     14  H   UNL     1     -47.591  -4.205 -30.107  0.00  0.00    +0.000 HD
ENDBRANCH   3  13
ENDBRANCH   1   2
BRANCH   1  15
ATOM     15  C   UNL     1     -45.262  -6.751 -31.692  0.00  0.00    +0.000 A 
ATOM     16  C   UNL     1     -44.527  -7.882 -31.318  0.00  0.00    +0.000 A 
ATOM     17  C   UNL     1     -44.237  -8.870 -32.260  0.00  0.00    +0.000 A 
ATOM     18  N   UNL     1     -44.667  -8.739 -33.542  0.00  0.00    +0.000 NA
ATOM     19  C   UNL     1     -45.387  -7.658 -33.945  0.00  0.00    +0.000 A 
ATOM     20  C   UNL     1     -45.817  -7.565 -35.272  0.00  0.00    +0.000 A 
ATOM     21  C   UNL     1     -46.562  -6.458 -35.690  0.00  0.00    +0.000 A 
ATOM     22  C   UNL     1     -46.879  -5.442 -34.784  0.00  0.00    +0.000 A 
ATOM     23  C   UNL     1     -46.453  -5.529 -33.456  0.00  0.00    +0.000 A 
ATOM     24  C   UNL     1     -45.704  -6.633 -33.023  0.00  0.00    +0.000 A 
ENDBRANCH   1  15
BRANCH   1  25
ATOM     25  C   UNL     1     -45.163  -6.046 -29.251  0.00  0.00    +0.000 C 
BRANCH  25  27
ATOM     26  O   UNL     1     -46.910  -6.810 -27.826  0.00  0.00    +0.000 OA
ATOM     27  C   UNL     1     -46.285  -5.822 -28.296  0.00  0.00    +0.000 C 
ATOM     28  N   UNL     1     -46.611  -4.491 -27.888  0.00  0.00    +0.000 N 
ATOM     29  H   UNL     1     -46.098  -3.742 -28.267  0.00  0.00    +0.000 HD
BRANCH  28  30
ATOM     30  C   UNL     1     -47.670  -4.201 -26.934  0.00  0.00    +0.000 C 
BRANCH  30  31
ATOM     31  C   UNL     1     -47.431  -2.848 -26.285  0.00  0.00    +0.000 C 
BRANCH  31  32
ATOM     32  C   UNL     1     -47.294  -2.993 -24.808  0.00  0.00    +0.000 A 
ATOM     33  C   UNL     1     -47.120  -4.256 -24.229  0.00  0.00    +0.000 A 
ATOM     34  C   UNL     1     -46.977  -4.379 -22.844  0.00  0.00    +0.000 A 
ATOM     35  C   UNL     1     -47.003  -3.239 -22.034  0.00  0.00    +0.000 A 
ATOM     36  C   UNL     1     -47.170  -1.975 -22.611  0.00  0.00    +0.000 A 
ATOM     37  C   UNL     1     -47.313  -1.853 -23.997  0.00  0.00    +0.000 A 
BRANCH  36  38
ATOM     38  O   UNL     1     -47.195  -0.836 -21.816  0.00  0.00    +0.000 OA
ATOM     39  H   UNL     1     -46.635  -0.110 -22.019  0.00  0.00    +0.000 HD
ENDBRANCH  36  38
BRANCH  35  40
ATOM     40  O   UNL     1     -46.861  -3.371 -20.658  0.00  0.00    +0.000 OA
ATOM     41  H   UNL     1     -46.077  -3.738 -20.301  0.00  0.00    +0.000 HD
ENDBRANCH  35  40
ENDBRANCH  31  32
ENDBRANCH  30  31
ENDBRANCH  28  30
ENDBRANCH  25  27
ENDBRANCH   1  25
TORSDOF 10
ENDMDL
