MODEL 1
REMARK VINA RESULT:      -7.0      0.000      0.000
REMARK  Name = ZINC000031810633
REMARK  1 active torsions:
REMARK  status: ('A' for Active; 'I' for Inactive)
REMARK    1  A    between atoms: C_7  and  C_24
REMARK                            x       y       z     vdW  Elec       q    Type
REMARK                         _______ _______ _______ _____ _____    ______ ____
ROOT
ATOM      1  C   UNL     1     -47.344  -4.395 -34.298  0.00  0.00    +0.000 C 
ATOM      2  C   UNL     1     -46.636  -5.588 -33.758  0.00  0.00    +0.000 A 
ATOM      3  N   UNL     1     -46.611  -6.779 -34.380  0.00  0.00    +0.000 NA
ATOM      4  N   UNL     1     -45.902  -7.608 -33.632  0.00  0.00    +0.000 N 
ATOM      5  C   UNL     1     -45.436  -6.956 -32.542  0.00  0.00    +0.000 A 
ATOM      6  C   UNL     1     -45.909  -5.645 -32.581  0.00  0.00    +0.000 A 
ATOM      7  C   UNL     1     -45.699  -4.481 -31.651  0.00  0.00    +0.000 C 
ATOM      8  S   UNL     1     -45.425  -4.904 -29.903  0.00  0.00    +0.000 S 
ATOM      9  C   UNL     1     -43.773  -5.553 -30.233  0.00  0.00    +0.000 C 
ATOM     10  C   UNL     1     -43.847  -7.015 -30.479  0.00  0.00    +0.000 C 
ATOM     11  O   UNL     1     -43.227  -7.784 -29.702  0.00  0.00    +0.000 OA
ATOM     12  N   UNL     1     -44.565  -7.577 -31.582  0.00  0.00    +0.000 N 
ATOM     13  H   UNL     1     -44.442  -8.546 -31.703  0.00  0.00    +0.000 HD
ATOM     14  C   UNL     1     -45.642  -8.966 -34.016  0.00  0.00    +0.000 A 
ATOM     15  N   UNL     1     -45.427  -9.277 -35.330  0.00  0.00    +0.000 NA
ATOM     16  C   UNL     1     -45.206 -10.569 -35.734  0.00  0.00    +0.000 A 
ATOM     17  N   UNL     1     -45.209 -11.590 -34.826  0.00  0.00    +0.000 NA
ATOM     18  C   UNL     1     -45.436 -11.285 -33.526  0.00  0.00    +0.000 A 
ATOM     19  N   UNL     1     -45.533 -12.151 -32.510  0.00  0.00    +0.000 N 
ATOM     20  C   UNL     1     -45.827 -11.337 -31.459  0.00  0.00    +0.000 A 
ATOM     21  N   UNL     1     -45.918 -10.019 -31.790  0.00  0.00    +0.000 NA
ATOM     22  C   UNL     1     -45.654 -10.022 -33.104  0.00  0.00    +0.000 A 
ATOM     23  H   UNL     1     -45.419 -13.129 -32.519  0.00  0.00    +0.000 HD
ENDROOT
BRANCH   7  24
ATOM     24  C   UNL     1     -44.814  -3.378 -32.170  0.00  0.00    +0.000 A 
ATOM     25  C   UNL     1     -45.102  -2.068 -31.768  0.00  0.00    +0.000 A 
ATOM     26  C   UNL     1     -44.317  -1.001 -32.210  0.00  0.00    +0.000 A 
ATOM     27  C   UNL     1     -43.233  -1.236 -33.058  0.00  0.00    +0.000 A 
ATOM     28  F   UNL     1     -42.472  -0.201 -33.486  0.00  0.00    +0.000 F 
ATOM     29  C   UNL     1     -42.934  -2.538 -33.464  0.00  0.00    +0.000 A 
ATOM     30  C   UNL     1     -43.716  -3.610 -33.025  0.00  0.00    +0.000 A 
ATOM     31  F   UNL     1     -43.397  -4.862 -33.437  0.00  0.00    +0.000 F 
ENDBRANCH   7  24
TORSDOF 1
ENDMDL
MODEL 2
REMARK VINA RESULT:      -6.9      2.190      2.901
REMARK  Name = ZINC000031810633
REMARK  1 active torsions:
REMARK  status: ('A' for Active; 'I' for Inactive)
REMARK    1  A    between atoms: C_7  and  C_24
REMARK                            x       y       z     vdW  Elec       q    Type
REMARK                         _______ _______ _______ _____ _____    ______ ____
ROOT
ATOM      1  C   UNL     1     -45.770  -6.611 -34.801  0.00  0.00    +0.000 C 
ATOM      2  C   UNL     1     -45.652  -7.165 -33.424  0.00  0.00    +0.000 A 
ATOM      3  N   UNL     1     -45.163  -8.388 -33.156  0.00  0.00    +0.000 NA
ATOM      4  N   UNL     1     -45.201  -8.557 -31.845  0.00  0.00    +0.000 N 
ATOM      5  C   UNL     1     -45.681  -7.439 -31.253  0.00  0.00    +0.000 A 
ATOM      6  C   UNL     1     -46.002  -6.519 -32.249  0.00  0.00    +0.000 A 
ATOM      7  C   UNL     1     -46.551  -5.121 -32.177  0.00  0.00    +0.000 C 
ATOM      8  S   UNL     1     -47.620  -4.764 -30.749  0.00  0.00    +0.000 S 
ATOM      9  C   UNL     1     -46.230  -4.790 -29.596  0.00  0.00    +0.000 C 
ATOM     10  C   UNL     1     -46.077  -6.151 -29.024  0.00  0.00    +0.000 C 
ATOM     11  O   UNL     1     -46.199  -6.295 -27.781  0.00  0.00    +0.000 OA
ATOM     12  N   UNL     1     -45.764  -7.295 -29.825  0.00  0.00    +0.000 N 
ATOM     13  H   UNL     1     -45.574  -8.116 -29.315  0.00  0.00    +0.000 HD
ATOM     14  C   UNL     1     -44.720  -9.749 -31.205  0.00  0.00    +0.000 A 
ATOM     15  N   UNL     1     -43.615 -10.389 -31.693  0.00  0.00    +0.000 NA
ATOM     16  C   UNL     1     -43.146 -11.545 -31.123  0.00  0.00    +0.000 A 
ATOM     17  N   UNL     1     -43.788 -12.100 -30.051  0.00  0.00    +0.000 NA
ATOM     18  C   UNL     1     -44.891 -11.474 -29.576  0.00  0.00    +0.000 A 
ATOM     19  N   UNL     1     -45.679 -11.895 -28.579  0.00  0.00    +0.000 N 
ATOM     20  C   UNL     1     -46.657 -10.948 -28.558  0.00  0.00    +0.000 A 
ATOM     21  N   UNL     1     -46.503  -9.976 -29.500  0.00  0.00    +0.000 NA
ATOM     22  C   UNL     1     -45.370 -10.335 -30.119  0.00  0.00    +0.000 A 
ATOM     23  H   UNL     1     -45.576 -12.687 -28.004  0.00  0.00    +0.000 HD
ENDROOT
BRANCH   7  24
ATOM     24  C   UNL     1     -45.585  -4.017 -32.520  0.00  0.00    +0.000 A 
ATOM     25  C   UNL     1     -44.250  -4.173 -32.124  0.00  0.00    +0.000 A 
ATOM     26  C   UNL     1     -43.304  -3.189 -32.416  0.00  0.00    +0.000 A 
ATOM     27  C   UNL     1     -43.684  -2.039 -33.111  0.00  0.00    +0.000 A 
ATOM     28  F   UNL     1     -42.765  -1.084 -33.394  0.00  0.00    +0.000 F 
ATOM     29  C   UNL     1     -45.011  -1.873 -33.514  0.00  0.00    +0.000 A 
ATOM     30  C   UNL     1     -45.963  -2.854 -33.224  0.00  0.00    +0.000 A 
ATOM     31  F   UNL     1     -47.242  -2.662 -33.631  0.00  0.00    +0.000 F 
ENDBRANCH   7  24
TORSDOF 1
ENDMDL
MODEL 3
REMARK VINA RESULT:      -6.9      4.680      7.406
REMARK  Name = ZINC000031810633
REMARK  1 active torsions:
REMARK  status: ('A' for Active; 'I' for Inactive)
REMARK    1  A    between atoms: C_7  and  C_24
REMARK                            x       y       z     vdW  Elec       q    Type
REMARK                         _______ _______ _______ _____ _____    ______ ____
ROOT
ATOM      1  C   UNL     1     -47.485  -4.461 -26.225  0.00  0.00    +0.000 C 
ATOM      2  C   UNL     1     -46.989  -4.716 -27.605  0.00  0.00    +0.000 A 
ATOM      3  N   UNL     1     -46.851  -3.753 -28.533  0.00  0.00    +0.000 NA
ATOM      4  N   UNL     1     -46.392  -4.322 -29.636  0.00  0.00    +0.000 N 
ATOM      5  C   UNL     1     -46.200  -5.644 -29.423  0.00  0.00    +0.000 A 
ATOM      6  C   UNL     1     -46.594  -5.940 -28.119  0.00  0.00    +0.000 A 
ATOM      7  C   UNL     1     -46.587  -7.229 -27.343  0.00  0.00    +0.000 C 
ATOM      8  S   UNL     1     -46.791  -8.745 -28.326  0.00  0.00    +0.000 S 
ATOM      9  C   UNL     1     -45.136  -8.608 -29.037  0.00  0.00    +0.000 C 
ATOM     10  C   UNL     1     -45.202  -7.875 -30.325  0.00  0.00    +0.000 C 
ATOM     11  O   UNL     1     -44.835  -8.469 -31.371  0.00  0.00    +0.000 OA
ATOM     12  N   UNL     1     -45.631  -6.513 -30.418  0.00  0.00    +0.000 N 
ATOM     13  H   UNL     1     -45.520  -6.105 -31.307  0.00  0.00    +0.000 HD
ATOM     14  C   UNL     1     -46.096  -3.575 -30.825  0.00  0.00    +0.000 A 
ATOM     15  N   UNL     1     -45.561  -2.320 -30.729  0.00  0.00    +0.000 NA
ATOM     16  C   UNL     1     -45.293  -1.568 -31.844  0.00  0.00    +0.000 A 
ATOM     17  N   UNL     1     -45.571  -2.053 -33.091  0.00  0.00    +0.000 NA
ATOM     18  C   UNL     1     -46.115  -3.289 -33.186  0.00  0.00    +0.000 A 
ATOM     19  N   UNL     1     -46.506  -3.903 -34.309  0.00  0.00    +0.000 N 
ATOM     20  C   UNL     1     -47.029  -5.069 -33.839  0.00  0.00    +0.000 A 
ATOM     21  N   UNL     1     -46.980  -5.188 -32.484  0.00  0.00    +0.000 NA
ATOM     22  C   UNL     1     -46.385  -4.049 -32.104  0.00  0.00    +0.000 A 
ATOM     23  H   UNL     1     -46.432  -3.593 -35.241  0.00  0.00    +0.000 HD
ENDROOT
BRANCH   7  24
ATOM     24  C   UNL     1     -45.555  -7.331 -26.251  0.00  0.00    +0.000 A 
ATOM     25  C   UNL     1     -44.225  -7.041 -26.581  0.00  0.00    +0.000 A 
ATOM     26  C   UNL     1     -43.221  -7.112 -25.613  0.00  0.00    +0.000 A 
ATOM     27  C   UNL     1     -43.540  -7.473 -24.302  0.00  0.00    +0.000 A 
ATOM     28  F   UNL     1     -42.566  -7.542 -23.364  0.00  0.00    +0.000 F 
ATOM     29  C   UNL     1     -44.862  -7.762 -23.959  0.00  0.00    +0.000 A 
ATOM     30  C   UNL     1     -45.872  -7.693 -24.924  0.00  0.00    +0.000 A 
ATOM     31  F   UNL     1     -47.145  -7.978 -24.557  0.00  0.00    +0.000 F 
ENDBRANCH   7  24
TORSDOF 1
ENDMDL
