MODEL 1
REMARK VINA RESULT:      -7.4      0.000      0.000
REMARK  Name = ZINC000100261004
REMARK  3 active torsions:
REMARK  status: ('A' for Active; 'I' for Inactive)
REMARK    1  A    between atoms: C_1  and  C_13
REMARK    2  A    between atoms: C_7  and  C_23
REMARK    3  A    between atoms: C_14  and  O_15
REMARK                            x       y       z     vdW  Elec       q    Type
REMARK                         _______ _______ _______ _____ _____    ______ ____
ROOT
ATOM      1  C   UNL     1     -45.635  -7.077 -33.969  0.00  0.00    +0.000 C 
ATOM      2  N   UNL     1     -45.207  -8.055 -34.709  0.00  0.00    +0.000 NA
ATOM      3  N   UNL     1     -45.637  -7.916 -36.035  0.00  0.00    +0.000 N 
ATOM      4  C   UNL     1     -46.426  -6.741 -36.076  0.00  0.00    +0.000 C 
ATOM      5  O   UNL     1     -46.992  -6.303 -37.113  0.00  0.00    +0.000 OA
ATOM      6  C   UNL     1     -46.438  -6.127 -34.766  0.00  0.00    +0.000 C 
ATOM      7  C   UNL     1     -46.998  -4.950 -34.465  0.00  0.00    +0.000 C 
ATOM      8  H   UNL     1     -45.433  -8.515 -36.789  0.00  0.00    +0.000 HD
ENDROOT
BRANCH   1  13
ATOM      9  C   UNL     1     -47.373  -8.190 -29.470  0.00  0.00    +0.000 C 
ATOM     10  N   UNL     1     -46.310  -7.630 -30.305  0.00  0.00    +0.000 N 
ATOM     11  C   UNL     1     -46.461  -7.644 -31.666  0.00  0.00    +0.000 A 
ATOM     12  O   UNL     1     -47.493  -8.159 -32.180  0.00  0.00    +0.000 OA
ATOM     13  C   UNL     1     -45.469  -7.091 -32.501  0.00  0.00    +0.000 A 
ATOM     14  C   UNL     1     -44.303  -6.569 -31.925  0.00  0.00    +0.000 A 
ATOM     15  C   UNL     1     -44.154  -6.569 -30.535  0.00  0.00    +0.000 A 
ATOM     16  C   UNL     1     -43.002  -6.036 -29.941  0.00  0.00    +0.000 A 
ATOM     17  C   UNL     1     -42.862  -6.029 -28.552  0.00  0.00    +0.000 A 
ATOM     18  C   UNL     1     -43.873  -6.554 -27.746  0.00  0.00    +0.000 A 
ATOM     19  C   UNL     1     -45.025  -7.087 -28.327  0.00  0.00    +0.000 A 
ATOM     20  C   UNL     1     -45.184  -7.104 -29.725  0.00  0.00    +0.000 A 
BRANCH  14  21
ATOM     21  O   UNL     1     -43.301  -6.036 -32.734  0.00  0.00    +0.000 OA
ATOM     22  H   UNL     1     -42.402  -6.232 -32.555  0.00  0.00    +0.000 HD
ENDBRANCH  14  21
ENDBRANCH   1  13
BRANCH   7  23
ATOM     23  C   UNL     1     -46.839  -4.207 -33.205  0.00  0.00    +0.000 A 
ATOM     24  C   UNL     1     -47.451  -4.470 -31.981  0.00  0.00    +0.000 A 
ATOM     25  N   UNL     1     -46.980  -3.630 -31.026  0.00  0.00    +0.000 N 
ATOM     26  C   UNL     1     -46.064  -2.866 -31.647  0.00  0.00    +0.000 A 
ATOM     27  C   UNL     1     -45.293  -1.857 -31.072  0.00  0.00    +0.000 A 
ATOM     28  C   UNL     1     -44.375  -1.185 -31.900  0.00  0.00    +0.000 A 
ATOM     29  C   UNL     1     -44.248  -1.533 -33.262  0.00  0.00    +0.000 A 
ATOM     30  C   UNL     1     -45.039  -2.556 -33.814  0.00  0.00    +0.000 A 
ATOM     31  C   UNL     1     -45.939  -3.200 -32.968  0.00  0.00    +0.000 A 
ATOM     32  H   UNL     1     -47.251  -3.588 -30.080  0.00  0.00    +0.000 HD
ENDBRANCH   7  23
TORSDOF 3
ENDMDL
MODEL 2
REMARK VINA RESULT:      -7.2      0.694      2.200
REMARK  Name = ZINC000100261004
REMARK  3 active torsions:
REMARK  status: ('A' for Active; 'I' for Inactive)
REMARK    1  A    between atoms: C_1  and  C_13
REMARK    2  A    between atoms: C_7  and  C_23
REMARK    3  A    between atoms: C_14  and  O_15
REMARK                            x       y       z     vdW  Elec       q    Type
REMARK                         _______ _______ _______ _____ _____    ______ ____
ROOT
ATOM      1  C   UNL     1     -45.540  -6.949 -33.940  0.00  0.00    +0.000 C 
ATOM      2  N   UNL     1     -45.105  -7.932 -34.670  0.00  0.00    +0.000 NA
ATOM      3  N   UNL     1     -45.593  -7.848 -35.981  0.00  0.00    +0.000 N 
ATOM      4  C   UNL     1     -46.426  -6.704 -36.022  0.00  0.00    +0.000 C 
ATOM      5  O   UNL     1     -47.048  -6.317 -37.046  0.00  0.00    +0.000 OA
ATOM      6  C   UNL     1     -46.408  -6.053 -34.730  0.00  0.00    +0.000 C 
ATOM      7  C   UNL     1     -46.999  -4.888 -34.438  0.00  0.00    +0.000 C 
ATOM      8  H   UNL     1     -45.396  -8.461 -36.726  0.00  0.00    +0.000 HD
ENDROOT
BRANCH   1  13
ATOM      9  C   UNL     1     -42.796  -5.569 -30.059  0.00  0.00    +0.000 C 
ATOM     10  N   UNL     1     -43.982  -6.246 -30.584  0.00  0.00    +0.000 N 
ATOM     11  C   UNL     1     -44.196  -6.251 -31.936  0.00  0.00    +0.000 A 
ATOM     12  O   UNL     1     -43.391  -5.654 -32.705  0.00  0.00    +0.000 OA
ATOM     13  C   UNL     1     -45.314  -6.915 -32.481  0.00  0.00    +0.000 A 
ATOM     14  C   UNL     1     -46.232  -7.530 -31.618  0.00  0.00    +0.000 A 
ATOM     15  C   UNL     1     -46.008  -7.510 -30.237  0.00  0.00    +0.000 A 
ATOM     16  C   UNL     1     -46.907  -8.135 -29.361  0.00  0.00    +0.000 A 
ATOM     17  C   UNL     1     -46.674  -8.120 -27.984  0.00  0.00    +0.000 A 
ATOM     18  C   UNL     1     -45.543  -7.484 -27.473  0.00  0.00    +0.000 A 
ATOM     19  C   UNL     1     -44.642  -6.859 -28.337  0.00  0.00    +0.000 A 
ATOM     20  C   UNL     1     -44.859  -6.861 -29.728  0.00  0.00    +0.000 A 
BRANCH  14  21
ATOM     21  O   UNL     1     -47.355  -8.174 -32.133  0.00  0.00    +0.000 OA
ATOM     22  H   UNL     1     -48.172  -8.129 -31.676  0.00  0.00    +0.000 HD
ENDBRANCH  14  21
ENDBRANCH   1  13
BRANCH   7  23
ATOM     23  C   UNL     1     -46.818  -4.104 -33.207  0.00  0.00    +0.000 A 
ATOM     24  C   UNL     1     -47.424  -4.313 -31.970  0.00  0.00    +0.000 A 
ATOM     25  N   UNL     1     -46.931  -3.448 -31.048  0.00  0.00    +0.000 N 
ATOM     26  C   UNL     1     -46.008  -2.721 -31.704  0.00  0.00    +0.000 A 
ATOM     27  C   UNL     1     -45.216  -1.706 -31.171  0.00  0.00    +0.000 A 
ATOM     28  C   UNL     1     -44.294  -1.079 -32.029  0.00  0.00    +0.000 A 
ATOM     29  C   UNL     1     -44.184  -1.476 -33.379  0.00  0.00    +0.000 A 
ATOM     30  C   UNL     1     -44.996  -2.505 -33.888  0.00  0.00    +0.000 A 
ATOM     31  C   UNL     1     -45.900  -3.103 -33.013  0.00  0.00    +0.000 A 
ATOM     32  H   UNL     1     -47.194  -3.368 -30.103  0.00  0.00    +0.000 HD
ENDBRANCH   7  23
TORSDOF 3
ENDMDL
MODEL 3
REMARK VINA RESULT:      -7.2     12.069     15.799
REMARK  Name = ZINC000100261004
REMARK  3 active torsions:
REMARK  status: ('A' for Active; 'I' for Inactive)
REMARK    1  A    between atoms: C_1  and  C_13
REMARK    2  A    between atoms: C_7  and  C_23
REMARK    3  A    between atoms: C_14  and  O_15
REMARK                            x       y       z     vdW  Elec       q    Type
REMARK                         _______ _______ _______ _____ _____    ______ ____
ROOT
ATOM      1  C   UNL     1     -45.275 -15.443 -21.189  0.00  0.00    +0.000 C 
ATOM      2  N   UNL     1     -45.636 -14.308 -20.668  0.00  0.00    +0.000 NA
ATOM      3  N   UNL     1     -46.461 -14.500 -19.553  0.00  0.00    +0.000 N 
ATOM      4  C   UNL     1     -46.626 -15.900 -19.416  0.00  0.00    +0.000 C 
ATOM      5  O   UNL     1     -47.320 -16.448 -18.519  0.00  0.00    +0.000 OA
ATOM      6  C   UNL     1     -45.850 -16.574 -20.434  0.00  0.00    +0.000 C 
ATOM      7  C   UNL     1     -45.690 -17.899 -20.539  0.00  0.00    +0.000 C 
ATOM      8  H   UNL     1     -46.850 -13.802 -18.977  0.00  0.00    +0.000 HD
ENDROOT
BRANCH   1  13
ATOM      9  C   UNL     1     -41.049 -15.948 -23.715  0.00  0.00    +0.000 C 
ATOM     10  N   UNL     1     -42.499 -15.749 -23.716  0.00  0.00    +0.000 N 
ATOM     11  C   UNL     1     -43.162 -15.718 -22.518  0.00  0.00    +0.000 A 
ATOM     12  O   UNL     1     -42.525 -15.888 -21.440  0.00  0.00    +0.000 OA
ATOM     13  C   UNL     1     -44.555 -15.504 -22.478  0.00  0.00    +0.000 A 
ATOM     14  C   UNL     1     -45.262 -15.370 -23.680  0.00  0.00    +0.000 A 
ATOM     15  C   UNL     1     -44.575 -15.412 -24.898  0.00  0.00    +0.000 A 
ATOM     16  C   UNL     1     -45.264 -15.262 -26.110  0.00  0.00    +0.000 A 
ATOM     17  C   UNL     1     -44.573 -15.296 -27.323  0.00  0.00    +0.000 A 
ATOM     18  C   UNL     1     -43.191 -15.478 -27.334  0.00  0.00    +0.000 A 
ATOM     19  C   UNL     1     -42.494 -15.628 -26.133  0.00  0.00    +0.000 A 
ATOM     20  C   UNL     1     -43.173 -15.598 -24.900  0.00  0.00    +0.000 A 
BRANCH  14  21
ATOM     21  O   UNL     1     -46.642 -15.177 -23.664  0.00  0.00    +0.000 OA
ATOM     22  H   UNL     1     -47.193 -15.697 -24.215  0.00  0.00    +0.000 HD
ENDBRANCH  14  21
ENDBRANCH   1  13
BRANCH   7  23
ATOM     23  C   UNL     1     -44.742 -18.593 -21.424  0.00  0.00    +0.000 A 
ATOM     24  C   UNL     1     -43.528 -19.182 -21.075  0.00  0.00    +0.000 A 
ATOM     25  N   UNL     1     -42.983 -19.814 -22.143  0.00  0.00    +0.000 N 
ATOM     26  C   UNL     1     -43.862 -19.638 -23.145  0.00  0.00    +0.000 A 
ATOM     27  C   UNL     1     -43.748 -20.119 -24.448  0.00  0.00    +0.000 A 
ATOM     28  C   UNL     1     -44.795 -19.836 -25.343  0.00  0.00    +0.000 A 
ATOM     29  C   UNL     1     -45.919 -19.091 -24.922  0.00  0.00    +0.000 A 
ATOM     30  C   UNL     1     -46.007 -18.619 -23.601  0.00  0.00    +0.000 A 
ATOM     31  C   UNL     1     -44.952 -18.916 -22.741  0.00  0.00    +0.000 A 
ATOM     32  H   UNL     1     -42.125 -20.296 -22.179  0.00  0.00    +0.000 HD
ENDBRANCH   7  23
TORSDOF 3
ENDMDL
