MODEL 1
REMARK VINA RESULT:      -8.1      0.000      0.000
REMARK  Name = ZINC000015869695 MCULE-2885134168 MolPort-007-958-787
REMARK  5 active torsions:
REMARK  status: ('A' for Active; 'I' for Inactive)
REMARK    1  A    between atoms: C_7  and  C_18
REMARK    2  A    between atoms: C_10  and  C_12
REMARK    3  A    between atoms: C_18  and  N_19
REMARK    4  A    between atoms: N_19  and  S_21
REMARK    5  A    between atoms: S_21  and  C_24
REMARK                            x       y       z     vdW  Elec       q    Type
REMARK                         _______ _______ _______ _____ _____    ______ ____
ROOT
ATOM      1  N   UNL     1     -46.380  -8.583 -28.330  0.00  0.00    +0.000 N 
ATOM      2  C   UNL     1     -45.939  -8.835 -26.955  0.00  0.00    +0.000 C 
ATOM      3  C   UNL     1     -45.928  -7.466 -26.240  0.00  0.00    +0.000 C 
ATOM      4  C   UNL     1     -46.395  -6.529 -27.292  0.00  0.00    +0.000 A 
ATOM      5  C   UNL     1     -46.574  -5.150 -27.189  0.00  0.00    +0.000 A 
ATOM      6  C   UNL     1     -47.018  -4.449 -28.322  0.00  0.00    +0.000 A 
ATOM      7  C   UNL     1     -47.265  -5.133 -29.528  0.00  0.00    +0.000 A 
ATOM      8  C   UNL     1     -47.081  -6.523 -29.604  0.00  0.00    +0.000 A 
ATOM      9  C   UNL     1     -46.644  -7.196 -28.459  0.00  0.00    +0.000 A 
ATOM     10  C   UNL     1     -46.749  -9.607 -29.274  0.00  0.00    +0.000 C 
ATOM     11  O   UNL     1     -47.566  -9.334 -30.196  0.00  0.00    +0.000 OA
ENDROOT
BRANCH  10  12
ATOM     12  C   UNL     1     -46.206 -10.982 -29.187  0.00  0.00    +0.000 A 
ATOM     13  C   UNL     1     -46.863 -11.977 -28.446  0.00  0.00    +0.000 A 
ATOM     14  C   UNL     1     -46.333 -13.268 -28.363  0.00  0.00    +0.000 A 
ATOM     15  C   UNL     1     -45.137 -13.576 -29.017  0.00  0.00    +0.000 A 
ATOM     16  C   UNL     1     -44.469 -12.590 -29.749  0.00  0.00    +0.000 A 
ATOM     17  C   UNL     1     -45.000 -11.299 -29.830  0.00  0.00    +0.000 A 
ENDBRANCH  10  12
BRANCH   7  18
ATOM     18  C   UNL     1     -47.755  -4.383 -30.715  0.00  0.00    +0.000 C 
BRANCH  18  19
ATOM     19  N   UNL     1     -46.894  -3.239 -30.963  0.00  0.00    +0.000 NA
ATOM     20  H   UNL     1     -46.173  -3.184 -30.244  0.00  0.00    +0.000 HD
BRANCH  19  21
ATOM     21  S   UNL     1     -46.161  -3.459 -32.518  0.00  0.00    +0.000 S 
ATOM     22  O   UNL     1     -45.971  -4.927 -32.775  0.00  0.00    +0.000 OA
ATOM     23  O   UNL     1     -47.062  -2.893 -33.583  0.00  0.00    +0.000 OA
BRANCH  21  24
ATOM     24  C   UNL     1     -44.599  -2.658 -32.565  0.00  0.00    +0.000 A 
ATOM     25  C   UNL     1     -44.510  -1.262 -32.346  0.00  0.00    +0.000 A 
ATOM     26  C   UNL     1     -43.264  -0.607 -32.362  0.00  0.00    +0.000 A 
ATOM     27  C   UNL     1     -42.137  -1.393 -32.596  0.00  0.00    +0.000 A 
ATOM     28  C   UNL     1     -42.219  -2.743 -32.800  0.00  0.00    +0.000 A 
ATOM     29  C   UNL     1     -43.435  -3.419 -32.795  0.00  0.00    +0.000 A 
ATOM     30  O   UNL     1     -41.013  -3.227 -32.986  0.00  0.00    +0.000 OA
ATOM     31  C   UNL     1     -40.197  -2.190 -32.896  0.00  0.00    +0.000 A 
ATOM     32  N   UNL     1     -40.849  -1.026 -32.658  0.00  0.00    +0.000 N 
ATOM     33  C   UNL     1     -40.281   0.304 -32.496  0.00  0.00    +0.000 C 
ATOM     34  O   UNL     1     -38.947  -2.277 -33.019  0.00  0.00    +0.000 OA
ENDBRANCH  21  24
ENDBRANCH  19  21
ENDBRANCH  18  19
ENDBRANCH   7  18
TORSDOF 5
ENDMDL
MODEL 2
REMARK VINA RESULT:      -7.7      3.698     10.823
REMARK  Name = ZINC000015869695 MCULE-2885134168 MolPort-007-958-787
REMARK  5 active torsions:
REMARK  status: ('A' for Active; 'I' for Inactive)
REMARK    1  A    between atoms: C_7  and  C_18
REMARK    2  A    between atoms: C_10  and  C_12
REMARK    3  A    between atoms: C_18  and  N_19
REMARK    4  A    between atoms: N_19  and  S_21
REMARK    5  A    between atoms: S_21  and  C_24
REMARK                            x       y       z     vdW  Elec       q    Type
REMARK                         _______ _______ _______ _____ _____    ______ ____
ROOT
ATOM      1  N   UNL     1     -45.593  -5.156 -32.189  0.00  0.00    +0.000 N 
ATOM      2  C   UNL     1     -45.565  -5.089 -33.652  0.00  0.00    +0.000 C 
ATOM      3  C   UNL     1     -46.139  -6.428 -34.164  0.00  0.00    +0.000 C 
ATOM      4  C   UNL     1     -46.473  -7.155 -32.914  0.00  0.00    +0.000 A 
ATOM      5  C   UNL     1     -47.028  -8.428 -32.788  0.00  0.00    +0.000 A 
ATOM      6  C   UNL     1     -47.253  -8.932 -31.497  0.00  0.00    +0.000 A 
ATOM      7  C   UNL     1     -46.915  -8.164 -30.365  0.00  0.00    +0.000 A 
ATOM      8  C   UNL     1     -46.361  -6.883 -30.520  0.00  0.00    +0.000 A 
ATOM      9  C   UNL     1     -46.154  -6.404 -31.817  0.00  0.00    +0.000 A 
ATOM     10  C   UNL     1     -45.362  -4.036 -31.311  0.00  0.00    +0.000 C 
ATOM     11  O   UNL     1     -45.882  -4.032 -30.162  0.00  0.00    +0.000 OA
ENDROOT
BRANCH  10  12
ATOM     12  C   UNL     1     -44.537  -2.878 -31.725  0.00  0.00    +0.000 A 
ATOM     13  C   UNL     1     -43.176  -3.028 -32.033  0.00  0.00    +0.000 A 
ATOM     14  C   UNL     1     -42.406  -1.923 -32.410  0.00  0.00    +0.000 A 
ATOM     15  C   UNL     1     -42.990  -0.656 -32.479  0.00  0.00    +0.000 A 
ATOM     16  C   UNL     1     -44.342  -0.493 -32.165  0.00  0.00    +0.000 A 
ATOM     17  C   UNL     1     -45.110  -1.598 -31.786  0.00  0.00    +0.000 A 
ENDBRANCH  10  12
BRANCH   7  18
ATOM     18  C   UNL     1     -47.178  -8.701 -29.003  0.00  0.00    +0.000 C 
BRANCH  18  19
ATOM     19  N   UNL     1     -47.182 -10.154 -29.040  0.00  0.00    +0.000 NA
ATOM     20  H   UNL     1     -47.463 -10.477 -29.966  0.00  0.00    +0.000 HD
BRANCH  19  21
ATOM     21  S   UNL     1     -45.574 -10.694 -28.689  0.00  0.00    +0.000 S 
ATOM     22  O   UNL     1     -44.869 -11.028 -29.972  0.00  0.00    +0.000 OA
ATOM     23  O   UNL     1     -44.817  -9.596 -27.991  0.00  0.00    +0.000 OA
BRANCH  21  24
ATOM     24  C   UNL     1     -45.630 -12.124 -27.672  0.00  0.00    +0.000 A 
ATOM     25  C   UNL     1     -45.279 -13.389 -28.204  0.00  0.00    +0.000 A 
ATOM     26  C   UNL     1     -45.301 -14.542 -27.399  0.00  0.00    +0.000 A 
ATOM     27  C   UNL     1     -45.674 -14.379 -26.066  0.00  0.00    +0.000 A 
ATOM     28  C   UNL     1     -46.007 -13.158 -25.546  0.00  0.00    +0.000 A 
ATOM     29  C   UNL     1     -45.999 -11.999 -26.317  0.00  0.00    +0.000 A 
ATOM     30  O   UNL     1     -46.307 -13.295 -24.275  0.00  0.00    +0.000 OA
ATOM     31  C   UNL     1     -46.161 -14.584 -24.014  0.00  0.00    +0.000 A 
ATOM     32  N   UNL     1     -45.772 -15.300 -25.096  0.00  0.00    +0.000 N 
ATOM     33  C   UNL     1     -45.512 -16.729 -25.181  0.00  0.00    +0.000 C 
ATOM     34  O   UNL     1     -46.363 -15.088 -22.878  0.00  0.00    +0.000 OA
ENDBRANCH  21  24
ENDBRANCH  19  21
ENDBRANCH  18  19
ENDBRANCH   7  18
TORSDOF 5
ENDMDL
MODEL 3
REMARK VINA RESULT:      -7.7      9.525     14.044
REMARK  Name = ZINC000015869695 MCULE-2885134168 MolPort-007-958-787
REMARK  5 active torsions:
REMARK  status: ('A' for Active; 'I' for Inactive)
REMARK    1  A    between atoms: C_7  and  C_18
REMARK    2  A    between atoms: C_10  and  C_12
REMARK    3  A    between atoms: C_18  and  N_19
REMARK    4  A    between atoms: N_19  and  S_21
REMARK    5  A    between atoms: S_21  and  C_24
REMARK                            x       y       z     vdW  Elec       q    Type
REMARK                         _______ _______ _______ _____ _____    ______ ____
ROOT
ATOM      1  N   UNL     1     -46.244 -14.743 -19.359  0.00  0.00    +0.000 N 
ATOM      2  C   UNL     1     -47.199 -14.987 -18.275  0.00  0.00    +0.000 C 
ATOM      3  C   UNL     1     -47.546 -16.490 -18.326  0.00  0.00    +0.000 C 
ATOM      4  C   UNL     1     -46.721 -16.992 -19.453  0.00  0.00    +0.000 A 
ATOM      5  C   UNL     1     -46.644 -18.296 -19.942  0.00  0.00    +0.000 A 
ATOM      6  C   UNL     1     -45.799 -18.549 -21.034  0.00  0.00    +0.000 A 
ATOM      7  C   UNL     1     -45.059 -17.503 -21.618  0.00  0.00    +0.000 A 
ATOM      8  C   UNL     1     -45.151 -16.199 -21.104  0.00  0.00    +0.000 A 
ATOM      9  C   UNL     1     -45.995 -15.977 -20.011  0.00  0.00    +0.000 A 
ATOM     10  C   UNL     1     -45.488 -13.527 -19.530  0.00  0.00    +0.000 C 
ATOM     11  O   UNL     1     -44.376 -13.568 -20.123  0.00  0.00    +0.000 OA
ENDROOT
BRANCH  10  12
ATOM     12  C   UNL     1     -45.975 -12.227 -19.015  0.00  0.00    +0.000 A 
ATOM     13  C   UNL     1     -45.689 -11.812 -17.704  0.00  0.00    +0.000 A 
ATOM     14  C   UNL     1     -46.165 -10.586 -17.228  0.00  0.00    +0.000 A 
ATOM     15  C   UNL     1     -46.935  -9.766 -18.056  0.00  0.00    +0.000 A 
ATOM     16  C   UNL     1     -47.233 -10.174 -19.359  0.00  0.00    +0.000 A 
ATOM     17  C   UNL     1     -46.759 -11.400 -19.834  0.00  0.00    +0.000 A 
ENDBRANCH  10  12
BRANCH   7  18
ATOM     18  C   UNL     1     -44.151 -17.788 -22.762  0.00  0.00    +0.000 C 
BRANCH  18  19
ATOM     19  N   UNL     1     -44.428 -19.113 -23.290  0.00  0.00    +0.000 NA
ATOM     20  H   UNL     1     -45.202 -19.537 -22.777  0.00  0.00    +0.000 HD
BRANCH  19  21
ATOM     21  S   UNL     1     -44.854 -18.936 -24.960  0.00  0.00    +0.000 S 
ATOM     22  O   UNL     1     -43.879 -19.704 -25.807  0.00  0.00    +0.000 OA
ATOM     23  O   UNL     1     -46.235 -19.488 -25.188  0.00  0.00    +0.000 OA
BRANCH  21  24
ATOM     24  C   UNL     1     -44.802 -17.240 -25.415  0.00  0.00    +0.000 A 
ATOM     25  C   UNL     1     -43.705 -16.736 -26.155  0.00  0.00    +0.000 A 
ATOM     26  C   UNL     1     -43.657 -15.385 -26.544  0.00  0.00    +0.000 A 
ATOM     27  C   UNL     1     -44.732 -14.579 -26.174  0.00  0.00    +0.000 A 
ATOM     28  C   UNL     1     -45.797 -15.064 -25.465  0.00  0.00    +0.000 A 
ATOM     29  C   UNL     1     -45.873 -16.394 -25.062  0.00  0.00    +0.000 A 
ATOM     30  O   UNL     1     -46.660 -14.096 -25.262  0.00  0.00    +0.000 OA
ATOM     31  C   UNL     1     -46.136 -13.027 -25.839  0.00  0.00    +0.000 A 
ATOM     32  N   UNL     1     -44.936 -13.276 -26.417  0.00  0.00    +0.000 N 
ATOM     33  C   UNL     1     -44.078 -12.349 -27.139  0.00  0.00    +0.000 C 
ATOM     34  O   UNL     1     -46.695 -11.900 -25.850  0.00  0.00    +0.000 OA
ENDBRANCH  21  24
ENDBRANCH  19  21
ENDBRANCH  18  19
ENDBRANCH   7  18
TORSDOF 5
ENDMDL
