MODEL 1
REMARK VINA RESULT:      -6.7      0.000      0.000
REMARK  Name = ZINC000065283276 ZINC65283276 ChemDiv-T480-0419 MolPort-010-948-687 PubChem-53190182
REMARK  2 active torsions:
REMARK  status: ('A' for Active; 'I' for Inactive)
REMARK    1  A    between atoms: C_8  and  C_17
REMARK    2  A    between atoms: N_19  and  C_21
REMARK                            x       y       z     vdW  Elec       q    Type
REMARK                         _______ _______ _______ _____ _____    ______ ____
ROOT
ATOM      1  C   UNL     1     -45.718  -6.504 -25.628  0.00  0.00    +0.000 C 
ATOM      2  C   UNL     1     -46.354  -5.901 -26.832  0.00  0.00    +0.000 A 
ATOM      3  C   UNL     1     -46.362  -6.388 -28.137  0.00  0.00    +0.000 A 
ATOM      4  C   UNL     1     -47.021  -5.535 -29.033  0.00  0.00    +0.000 A 
ATOM      5  C   UNL     1     -47.552  -4.373 -28.486  0.00  0.00    +0.000 A 
ATOM      6  S   UNL     1     -47.170  -4.432 -26.842  0.00  0.00    +0.000 S 
ATOM      7  N   UNL     1     -47.108  -5.846 -30.349  0.00  0.00    +0.000 NA
ATOM      8  C   UNL     1     -46.561  -7.002 -30.817  0.00  0.00    +0.000 A 
ATOM      9  N   UNL     1     -45.907  -7.843 -29.962  0.00  0.00    +0.000 NA
ATOM     10  C   UNL     1     -45.798  -7.573 -28.632  0.00  0.00    +0.000 A 
ATOM     11  N   UNL     1     -45.123  -8.501 -27.783  0.00  0.00    +0.000 N 
ATOM     12  C   UNL     1     -43.681  -8.337 -27.576  0.00  0.00    +0.000 C 
ATOM     13  C   UNL     1     -43.081  -9.552 -26.870  0.00  0.00    +0.000 C 
ATOM     14  O   UNL     1     -43.926  -9.969 -25.833  0.00  0.00    +0.000 OA
ATOM     15  C   UNL     1     -45.005 -10.594 -26.472  0.00  0.00    +0.000 C 
ATOM     16  C   UNL     1     -45.910  -9.544 -27.115  0.00  0.00    +0.000 C 
ENDROOT
BRANCH   8  17
ATOM     17  C   UNL     1     -46.639  -7.336 -32.252  0.00  0.00    +0.000 C 
ATOM     18  O   UNL     1     -47.374  -8.288 -32.621  0.00  0.00    +0.000 OA
ATOM     19  N   UNL     1     -45.854  -6.648 -33.236  0.00  0.00    +0.000 N 
ATOM     20  H   UNL     1     -45.507  -7.183 -33.986  0.00  0.00    +0.000 HD
BRANCH  19  21
ATOM     21  C   UNL     1     -45.530  -5.251 -33.227  0.00  0.00    +0.000 A 
ATOM     22  C   UNL     1     -46.513  -4.324 -33.595  0.00  0.00    +0.000 A 
ATOM     23  C   UNL     1     -46.240  -2.953 -33.562  0.00  0.00    +0.000 A 
ATOM     24  C   UNL     1     -44.982  -2.505 -33.152  0.00  0.00    +0.000 A 
ATOM     25  O   UNL     1     -44.693  -1.138 -33.091  0.00  0.00    +0.000 OA
ATOM     26  C   UNL     1     -43.530  -0.666 -32.407  0.00  0.00    +0.000 C 
ATOM     27  C   UNL     1     -42.348  -1.604 -32.665  0.00  0.00    +0.000 C 
ATOM     28  O   UNL     1     -42.729  -2.959 -32.417  0.00  0.00    +0.000 OA
ATOM     29  C   UNL     1     -43.991  -3.427 -32.791  0.00  0.00    +0.000 A 
ATOM     30  C   UNL     1     -44.269  -4.795 -32.810  0.00  0.00    +0.000 A 
ENDBRANCH  19  21
ENDBRANCH   8  17
TORSDOF 2
ENDMDL
MODEL 2
REMARK VINA RESULT:      -6.6      3.000      6.867
REMARK  Name = ZINC000065283276 ZINC65283276 ChemDiv-T480-0419 MolPort-010-948-687 PubChem-53190182
REMARK  2 active torsions:
REMARK  status: ('A' for Active; 'I' for Inactive)
REMARK    1  A    between atoms: C_8  and  C_17
REMARK    2  A    between atoms: N_19  and  C_21
REMARK                            x       y       z     vdW  Elec       q    Type
REMARK                         _______ _______ _______ _____ _____    ______ ____
ROOT
ATOM      1  C   UNL     1     -40.393  -2.817 -33.210  0.00  0.00    +0.000 C 
ATOM      2  C   UNL     1     -41.697  -2.152 -32.929  0.00  0.00    +0.000 A 
ATOM      3  C   UNL     1     -42.972  -2.712 -32.956  0.00  0.00    +0.000 A 
ATOM      4  C   UNL     1     -43.983  -1.780 -32.683  0.00  0.00    +0.000 A 
ATOM      5  C   UNL     1     -43.557  -0.482 -32.428  0.00  0.00    +0.000 A 
ATOM      6  S   UNL     1     -41.875  -0.523 -32.560  0.00  0.00    +0.000 S 
ATOM      7  N   UNL     1     -45.285  -2.150 -32.686  0.00  0.00    +0.000 NA
ATOM      8  C   UNL     1     -45.631  -3.442 -32.947  0.00  0.00    +0.000 A 
ATOM      9  N   UNL     1     -44.662  -4.363 -33.225  0.00  0.00    +0.000 NA
ATOM     10  C   UNL     1     -43.340  -4.038 -33.230  0.00  0.00    +0.000 A 
ATOM     11  N   UNL     1     -42.372  -5.050 -33.504  0.00  0.00    +0.000 N 
ATOM     12  C   UNL     1     -41.963  -5.267 -34.895  0.00  0.00    +0.000 C 
ATOM     13  C   UNL     1     -41.136  -6.544 -35.037  0.00  0.00    +0.000 C 
ATOM     14  O   UNL     1     -40.220  -6.641 -33.982  0.00  0.00    +0.000 OA
ATOM     15  C   UNL     1     -40.988  -6.996 -32.865  0.00  0.00    +0.000 C 
ATOM     16  C   UNL     1     -41.790  -5.791 -32.379  0.00  0.00    +0.000 C 
ENDROOT
BRANCH   8  17
ATOM     17  C   UNL     1     -47.050  -3.845 -32.969  0.00  0.00    +0.000 C 
ATOM     18  O   UNL     1     -47.677  -3.821 -34.059  0.00  0.00    +0.000 OA
ATOM     19  N   UNL     1     -47.755  -4.205 -31.773  0.00  0.00    +0.000 N 
ATOM     20  H   UNL     1     -48.700  -3.933 -31.712  0.00  0.00    +0.000 HD
BRANCH  19  21
ATOM     21  C   UNL     1     -47.212  -4.929 -30.661  0.00  0.00    +0.000 A 
ATOM     22  C   UNL     1     -47.116  -4.291 -29.419  0.00  0.00    +0.000 A 
ATOM     23  C   UNL     1     -46.624  -4.980 -28.305  0.00  0.00    +0.000 A 
ATOM     24  C   UNL     1     -46.235  -6.315 -28.432  0.00  0.00    +0.000 A 
ATOM     25  O   UNL     1     -45.760  -7.031 -27.329  0.00  0.00    +0.000 OA
ATOM     26  C   UNL     1     -45.636  -8.454 -27.378  0.00  0.00    +0.000 C 
ATOM     27  C   UNL     1     -45.120  -8.893 -28.750  0.00  0.00    +0.000 C 
ATOM     28  O   UNL     1     -45.892  -8.282 -29.787  0.00  0.00    +0.000 OA
ATOM     29  C   UNL     1     -46.319  -6.957 -29.675  0.00  0.00    +0.000 A 
ATOM     30  C   UNL     1     -46.824  -6.272 -30.782  0.00  0.00    +0.000 A 
ENDBRANCH  19  21
ENDBRANCH   8  17
TORSDOF 2
ENDMDL
MODEL 3
REMARK VINA RESULT:      -6.3      3.228      6.728
REMARK  Name = ZINC000065283276 ZINC65283276 ChemDiv-T480-0419 MolPort-010-948-687 PubChem-53190182
REMARK  2 active torsions:
REMARK  status: ('A' for Active; 'I' for Inactive)
REMARK    1  A    between atoms: C_8  and  C_17
REMARK    2  A    between atoms: N_19  and  C_21
REMARK                            x       y       z     vdW  Elec       q    Type
REMARK                         _______ _______ _______ _____ _____    ______ ____
ROOT
ATOM      1  C   UNL     1     -40.792  -1.880 -32.926  0.00  0.00    +0.000 C 
ATOM      2  C   UNL     1     -42.274  -2.007 -32.993  0.00  0.00    +0.000 A 
ATOM      3  C   UNL     1     -43.031  -3.154 -33.222  0.00  0.00    +0.000 A 
ATOM      4  C   UNL     1     -44.408  -2.899 -33.264  0.00  0.00    +0.000 A 
ATOM      5  C   UNL     1     -44.787  -1.576 -33.067  0.00  0.00    +0.000 A 
ATOM      6  S   UNL     1     -43.347  -0.723 -32.844  0.00  0.00    +0.000 S 
ATOM      7  N   UNL     1     -45.291  -3.899 -33.496  0.00  0.00    +0.000 NA
ATOM      8  C   UNL     1     -44.849  -5.174 -33.683  0.00  0.00    +0.000 A 
ATOM      9  N   UNL     1     -43.510  -5.442 -33.655  0.00  0.00    +0.000 NA
ATOM     10  C   UNL     1     -42.587  -4.469 -33.422  0.00  0.00    +0.000 A 
ATOM     11  N   UNL     1     -41.202  -4.814 -33.381  0.00  0.00    +0.000 N 
ATOM     12  C   UNL     1     -40.431  -4.758 -34.627  0.00  0.00    +0.000 C 
ATOM     13  C   UNL     1     -39.057  -5.405 -34.458  0.00  0.00    +0.000 C 
ATOM     14  O   UNL     1     -38.496  -5.025 -33.233  0.00  0.00    +0.000 OA
ATOM     15  C   UNL     1     -39.204  -5.751 -32.267  0.00  0.00    +0.000 C 
ATOM     16  C   UNL     1     -40.601  -5.159 -32.088  0.00  0.00    +0.000 C 
ENDROOT
BRANCH   8  17
ATOM     17  C   UNL     1     -45.806  -6.263 -33.953  0.00  0.00    +0.000 C 
ATOM     18  O   UNL     1     -45.689  -6.934 -35.011  0.00  0.00    +0.000 OA
ATOM     19  N   UNL     1     -46.906  -6.544 -33.076  0.00  0.00    +0.000 N 
ATOM     20  H   UNL     1     -47.752  -6.825 -33.495  0.00  0.00    +0.000 HD
BRANCH  19  21
ATOM     21  C   UNL     1     -46.885  -6.456 -31.645  0.00  0.00    +0.000 A 
ATOM     22  C   UNL     1     -46.473  -7.569 -30.903  0.00  0.00    +0.000 A 
ATOM     23  C   UNL     1     -46.407  -7.504 -29.507  0.00  0.00    +0.000 A 
ATOM     24  C   UNL     1     -46.745  -6.318 -28.851  0.00  0.00    +0.000 A 
ATOM     25  O   UNL     1     -46.666  -6.222 -27.458  0.00  0.00    +0.000 OA
ATOM     26  C   UNL     1     -46.727  -4.951 -26.807  0.00  0.00    +0.000 C 
ATOM     27  C   UNL     1     -47.756  -4.053 -27.497  0.00  0.00    +0.000 C 
ATOM     28  O   UNL     1     -47.533  -4.038 -28.908  0.00  0.00    +0.000 OA
ATOM     29  C   UNL     1     -47.167  -5.203 -29.587  0.00  0.00    +0.000 A 
ATOM     30  C   UNL     1     -47.218  -5.265 -30.981  0.00  0.00    +0.000 A 
ENDBRANCH  19  21
ENDBRANCH   8  17
TORSDOF 2
ENDMDL
