MODEL 1
REMARK VINA RESULT:      -6.7      0.000      0.000
REMARK  Name = ZINC000012772569 CSC027018696 MCULE-2308435649 MolPort-005-665-378
REMARK  4 active torsions:
REMARK  status: ('A' for Active; 'I' for Inactive)
REMARK    1  A    between atoms: C_1  and  C_19
REMARK    2  A    between atoms: N_18  and  C_23
REMARK    3  A    between atoms: C_22  and  O_32
REMARK    4  A    between atoms: C_25  and  N_28
REMARK                            x       y       z     vdW  Elec       q    Type
REMARK                         _______ _______ _______ _____ _____    ______ ____
ROOT
ATOM      1  C   UNL     1     -45.878  -9.679 -32.296  0.00  0.00    +0.000 A 
ATOM      2  C   UNL     1     -44.878  -8.728 -32.545  0.00  0.00    +0.000 A 
ATOM      3  C   UNL     1     -45.052  -7.399 -32.148  0.00  0.00    +0.000 A 
ATOM      4  C   UNL     1     -46.237  -7.006 -31.501  0.00  0.00    +0.000 A 
ATOM      5  C   UNL     1     -46.376  -5.665 -31.119  0.00  0.00    +0.000 A 
ATOM      6  N   UNL     1     -45.366  -4.776 -31.377  0.00  0.00    +0.000 N 
ATOM      7  C   UNL     1     -44.218  -5.191 -32.004  0.00  0.00    +0.000 A 
ATOM      8  N   UNL     1     -44.078  -6.488 -32.384  0.00  0.00    +0.000 NA
ATOM      9  C   UNL     1     -43.105  -4.233 -32.308  0.00  0.00    +0.000 C 
ATOM     10  C   UNL     1     -43.313  -3.552 -33.655  0.00  0.00    +0.000 C 
ATOM     11  C   UNL     1     -44.229  -2.340 -33.538  0.00  0.00    +0.000 C 
ATOM     12  C   UNL     1     -45.687  -2.772 -33.481  0.00  0.00    +0.000 C 
ATOM     13  C   UNL     1     -46.278  -2.590 -32.084  0.00  0.00    +0.000 C 
ATOM     14  C   UNL     1     -45.523  -3.368 -31.006  0.00  0.00    +0.000 C 
ATOM     15  O   UNL     1     -47.430  -5.280 -30.539  0.00  0.00    +0.000 OA
ATOM     16  C   UNL     1     -47.243  -7.952 -31.265  0.00  0.00    +0.000 A 
ATOM     17  C   UNL     1     -47.064  -9.279 -31.664  0.00  0.00    +0.000 A 
ENDROOT
BRANCH   1  19
ATOM     18  N   UNL     1     -45.779 -12.183 -31.829  0.00  0.00    +0.000 N 
ATOM     19  C   UNL     1     -45.691 -11.077 -32.738  0.00  0.00    +0.000 C 
ATOM     20  O   UNL     1     -45.499 -11.317 -33.960  0.00  0.00    +0.000 OA
ATOM     21  H   UNL     1     -46.212 -13.003 -32.159  0.00  0.00    +0.000 HD
BRANCH  18  23
ATOM     22  C   UNL     1     -43.919 -12.022 -30.239  0.00  0.00    +0.000 A 
ATOM     23  C   UNL     1     -45.290 -12.203 -30.480  0.00  0.00    +0.000 A 
ATOM     24  C   UNL     1     -46.171 -12.342 -29.397  0.00  0.00    +0.000 A 
ATOM     25  C   UNL     1     -45.698 -12.334 -28.079  0.00  0.00    +0.000 A 
ATOM     26  C   UNL     1     -44.327 -12.168 -27.846  0.00  0.00    +0.000 A 
ATOM     27  C   UNL     1     -43.445 -12.010 -28.917  0.00  0.00    +0.000 A 
BRANCH  25  28
ATOM     28  N   UNL     1     -46.610 -12.495 -26.985  0.00  0.00    +0.000 N 
ATOM     29  O   UNL     1     -46.635 -13.671 -26.269  0.00  0.00    +0.000 OA
ATOM     30  O   UNL     1     -47.387 -11.572 -26.665  0.00  0.00    +0.000 OA
ENDBRANCH  25  28
BRANCH  22  32
ATOM     31  C   UNL     1     -42.013 -10.884 -31.336  0.00  0.00    +0.000 C 
ATOM     32  O   UNL     1     -43.048 -11.858 -31.322  0.00  0.00    +0.000 OA
ENDBRANCH  22  32
ENDBRANCH  18  23
ENDBRANCH   1  19
TORSDOF 4
ENDMDL
MODEL 2
REMARK VINA RESULT:      -6.7      5.924      8.873
REMARK  Name = ZINC000012772569 CSC027018696 MCULE-2308435649 MolPort-005-665-378
REMARK  4 active torsions:
REMARK  status: ('A' for Active; 'I' for Inactive)
REMARK    1  A    between atoms: C_1  and  C_19
REMARK    2  A    between atoms: N_18  and  C_23
REMARK    3  A    between atoms: C_22  and  O_32
REMARK    4  A    between atoms: C_25  and  N_28
REMARK                            x       y       z     vdW  Elec       q    Type
REMARK                         _______ _______ _______ _____ _____    ______ ____
ROOT
ATOM      1  C   UNL     1     -41.182  -5.134 -34.117  0.00  0.00    +0.000 A 
ATOM      2  C   UNL     1     -42.140  -6.158 -34.109  0.00  0.00    +0.000 A 
ATOM      3  C   UNL     1     -42.697  -6.615 -35.307  0.00  0.00    +0.000 A 
ATOM      4  C   UNL     1     -42.304  -6.044 -36.530  0.00  0.00    +0.000 A 
ATOM      5  C   UNL     1     -42.885  -6.527 -37.710  0.00  0.00    +0.000 A 
ATOM      6  N   UNL     1     -43.810  -7.535 -37.650  0.00  0.00    +0.000 N 
ATOM      7  C   UNL     1     -44.169  -8.078 -36.442  0.00  0.00    +0.000 A 
ATOM      8  N   UNL     1     -43.615  -7.611 -35.292  0.00  0.00    +0.000 NA
ATOM      9  C   UNL     1     -45.188  -9.174 -36.349  0.00  0.00    +0.000 C 
ATOM     10  C   UNL     1     -46.600  -8.609 -36.249  0.00  0.00    +0.000 C 
ATOM     11  C   UNL     1     -47.177  -8.283 -37.620  0.00  0.00    +0.000 C 
ATOM     12  C   UNL     1     -46.635  -6.956 -38.130  0.00  0.00    +0.000 C 
ATOM     13  C   UNL     1     -45.637  -7.151 -39.270  0.00  0.00    +0.000 C 
ATOM     14  C   UNL     1     -44.441  -8.020 -38.880  0.00  0.00    +0.000 C 
ATOM     15  O   UNL     1     -42.554  -6.032 -38.824  0.00  0.00    +0.000 OA
ATOM     16  C   UNL     1     -41.357  -5.010 -36.539  0.00  0.00    +0.000 A 
ATOM     17  C   UNL     1     -40.804  -4.557 -35.338  0.00  0.00    +0.000 A 
ENDROOT
BRANCH   1  19
ATOM     18  N   UNL     1     -41.402  -3.928 -31.882  0.00  0.00    +0.000 N 
ATOM     19  C   UNL     1     -40.615  -4.646 -32.843  0.00  0.00    +0.000 C 
ATOM     20  O   UNL     1     -39.415  -4.908 -32.561  0.00  0.00    +0.000 OA
ATOM     21  H   UNL     1     -41.236  -4.121 -30.932  0.00  0.00    +0.000 HD
BRANCH  18  23
ATOM     22  C   UNL     1     -42.024  -1.657 -32.571  0.00  0.00    +0.000 A 
ATOM     23  C   UNL     1     -42.409  -2.950 -32.183  0.00  0.00    +0.000 A 
ATOM     24  C   UNL     1     -43.771  -3.287 -32.150  0.00  0.00    +0.000 A 
ATOM     25  C   UNL     1     -44.753  -2.342 -32.470  0.00  0.00    +0.000 A 
ATOM     26  C   UNL     1     -44.362  -1.050 -32.842  0.00  0.00    +0.000 A 
ATOM     27  C   UNL     1     -43.009  -0.711 -32.895  0.00  0.00    +0.000 A 
BRANCH  25  28
ATOM     28  N   UNL     1     -46.141  -2.698 -32.415  0.00  0.00    +0.000 N 
ATOM     29  O   UNL     1     -46.868  -2.839 -33.575  0.00  0.00    +0.000 OA
ATOM     30  O   UNL     1     -46.703  -2.892 -31.318  0.00  0.00    +0.000 OA
ENDBRANCH  25  28
BRANCH  22  32
ATOM     31  C   UNL     1     -40.191   0.006 -32.642  0.00  0.00    +0.000 C 
ATOM     32  O   UNL     1     -40.663  -1.335 -32.625  0.00  0.00    +0.000 OA
ENDBRANCH  22  32
ENDBRANCH  18  23
ENDBRANCH   1  19
TORSDOF 4
ENDMDL
MODEL 3
REMARK VINA RESULT:      -6.7      2.768      8.678
REMARK  Name = ZINC000012772569 CSC027018696 MCULE-2308435649 MolPort-005-665-378
REMARK  4 active torsions:
REMARK  status: ('A' for Active; 'I' for Inactive)
REMARK    1  A    between atoms: C_1  and  C_19
REMARK    2  A    between atoms: N_18  and  C_23
REMARK    3  A    between atoms: C_22  and  O_32
REMARK    4  A    between atoms: C_25  and  N_28
REMARK                            x       y       z     vdW  Elec       q    Type
REMARK                         _______ _______ _______ _____ _____    ______ ____
ROOT
ATOM      1  C   UNL     1     -46.283  -5.826 -28.861  0.00  0.00    +0.000 A 
ATOM      2  C   UNL     1     -46.902  -7.058 -28.600  0.00  0.00    +0.000 A 
ATOM      3  C   UNL     1     -46.132  -8.208 -28.401  0.00  0.00    +0.000 A 
ATOM      4  C   UNL     1     -44.730  -8.138 -28.472  0.00  0.00    +0.000 A 
ATOM      5  C   UNL     1     -43.992  -9.311 -28.269  0.00  0.00    +0.000 A 
ATOM      6  N   UNL     1     -44.643 -10.488 -28.008  0.00  0.00    +0.000 N 
ATOM      7  C   UNL     1     -46.012 -10.524 -27.939  0.00  0.00    +0.000 A 
ATOM      8  N   UNL     1     -46.736  -9.391 -28.141  0.00  0.00    +0.000 NA
ATOM      9  C   UNL     1     -46.748 -11.802 -27.667  0.00  0.00    +0.000 C 
ATOM     10  C   UNL     1     -47.028 -12.565 -28.956  0.00  0.00    +0.000 C 
ATOM     11  C   UNL     1     -45.839 -13.421 -29.374  0.00  0.00    +0.000 C 
ATOM     12  C   UNL     1     -44.778 -12.569 -30.056  0.00  0.00    +0.000 C 
ATOM     13  C   UNL     1     -43.549 -12.376 -29.170  0.00  0.00    +0.000 C 
ATOM     14  C   UNL     1     -43.874 -11.722 -27.826  0.00  0.00    +0.000 C 
ATOM     15  O   UNL     1     -42.730  -9.281 -28.328  0.00  0.00    +0.000 OA
ATOM     16  C   UNL     1     -44.111  -6.911 -28.748  0.00  0.00    +0.000 A 
ATOM     17  C   UNL     1     -44.885  -5.764 -28.944  0.00  0.00    +0.000 A 
ENDROOT
BRANCH   1  19
ATOM     18  N   UNL     1     -47.244  -4.022 -30.385  0.00  0.00    +0.000 N 
ATOM     19  C   UNL     1     -47.108  -4.621 -29.088  0.00  0.00    +0.000 C 
ATOM     20  O   UNL     1     -47.755  -4.127 -28.127  0.00  0.00    +0.000 OA
ATOM     21  H   UNL     1     -48.131  -3.670 -30.625  0.00  0.00    +0.000 HD
BRANCH  18  23
ATOM     22  C   UNL     1     -46.064  -4.866 -32.363  0.00  0.00    +0.000 A 
ATOM     23  C   UNL     1     -46.202  -3.890 -31.363  0.00  0.00    +0.000 A 
ATOM     24  C   UNL     1     -45.357  -2.769 -31.367  0.00  0.00    +0.000 A 
ATOM     25  C   UNL     1     -44.358  -2.626 -32.337  0.00  0.00    +0.000 A 
ATOM     26  C   UNL     1     -44.216  -3.611 -33.323  0.00  0.00    +0.000 A 
ATOM     27  C   UNL     1     -45.064  -4.720 -33.338  0.00  0.00    +0.000 A 
BRANCH  25  28
ATOM     28  N   UNL     1     -43.492  -1.484 -32.316  0.00  0.00    +0.000 N 
ATOM     29  O   UNL     1     -44.019  -0.213 -32.359  0.00  0.00    +0.000 OA
ATOM     30  O   UNL     1     -42.254  -1.626 -32.252  0.00  0.00    +0.000 OA
ENDBRANCH  25  28
BRANCH  22  32
ATOM     31  C   UNL     1     -46.460  -7.309 -32.446  0.00  0.00    +0.000 C 
ATOM     32  O   UNL     1     -46.926  -5.968 -32.368  0.00  0.00    +0.000 OA
ENDBRANCH  22  32
ENDBRANCH  18  23
ENDBRANCH   1  19
TORSDOF 4
ENDMDL
