MODEL 1
REMARK VINA RESULT:      -6.2      0.000      0.000
REMARK  Name = ZINC000018195880 ZINC18195880
REMARK  2 active torsions:
REMARK  status: ('A' for Active; 'I' for Inactive)
REMARK    1  A    between atoms: C_6  and  C_21
REMARK    2  A    between atoms: C_11  and  O_12
REMARK                            x       y       z     vdW  Elec       q    Type
REMARK                         _______ _______ _______ _____ _____    ______ ____
ROOT
ATOM      1  C   UNL     1     -44.006  -0.126 -32.181  0.00  0.00    +0.000 C 
ATOM      2  C   UNL     1     -44.228  -1.620 -32.287  0.00  0.00    +0.000 C 
ATOM      3  C   UNL     1     -45.250  -2.038 -31.227  0.00  0.00    +0.000 C 
ATOM      4  C   UNL     1     -45.368  -3.530 -31.056  0.00  0.00    +0.000 C 
ATOM      5  C   UNL     1     -44.341  -4.371 -31.382  0.00  0.00    +0.000 C 
ATOM      6  C   UNL     1     -44.467  -5.895 -31.265  0.00  0.00    +0.000 C 
ATOM      7  C   UNL     1     -45.696  -6.291 -30.504  0.00  0.00    +0.000 A 
ATOM      8  C   UNL     1     -46.679  -5.419 -30.178  0.00  0.00    +0.000 A 
ATOM      9  N   UNL     1     -47.697  -6.039 -29.557  0.00  0.00    +0.000 N 
ATOM     10  N   UNL     1     -47.382  -7.329 -29.484  0.00  0.00    +0.000 NA
ATOM     11  C   UNL     1     -46.171  -7.499 -30.059  0.00  0.00    +0.000 A 
ATOM     12  N   UNL     1     -46.579  -4.030 -30.459  0.00  0.00    +0.000 N 
ATOM     13  C   UNL     1     -43.070  -3.807 -31.898  0.00  0.00    +0.000 C 
ATOM     14  O   UNL     1     -42.101  -4.564 -32.167  0.00  0.00    +0.000 OA
ATOM     15  C   UNL     1     -42.895  -2.327 -32.055  0.00  0.00    +0.000 C 
ATOM     16  C   UNL     1     -44.757  -1.927 -33.680  0.00  0.00    +0.000 C 
ATOM     17  H   UNL     1     -48.521  -5.618 -29.220  0.00  0.00    +0.000 HD
ATOM     18  H   UNL     1     -47.323  -3.421 -30.248  0.00  0.00    +0.000 HD
ENDROOT
BRANCH   6  19
ATOM     19  C   UNL     1     -44.456  -6.550 -32.617  0.00  0.00    +0.000 A 
ATOM     20  C   UNL     1     -43.563  -7.587 -32.915  0.00  0.00    +0.000 A 
ATOM     21  C   UNL     1     -43.582  -8.162 -34.187  0.00  0.00    +0.000 A 
ATOM     22  N   UNL     1     -44.459  -7.713 -35.125  0.00  0.00    +0.000 NA
ATOM     23  C   UNL     1     -45.331  -6.704 -34.859  0.00  0.00    +0.000 A 
ATOM     24  C   UNL     1     -45.344  -6.103 -33.598  0.00  0.00    +0.000 A 
ENDBRANCH   6  19
BRANCH  11  25
ATOM     25  O   UNL     1     -45.529  -8.725 -30.178  0.00  0.00    +0.000 OA
ATOM     26  H   UNL     1     -45.901  -9.490 -29.784  0.00  0.00    +0.000 HD
ENDBRANCH  11  25
TORSDOF 2
ENDMDL
MODEL 2
REMARK VINA RESULT:      -6.2      2.294      3.773
REMARK  Name = ZINC000018195880 ZINC18195880
REMARK  2 active torsions:
REMARK  status: ('A' for Active; 'I' for Inactive)
REMARK    1  A    between atoms: C_6  and  C_21
REMARK    2  A    between atoms: C_11  and  O_12
REMARK                            x       y       z     vdW  Elec       q    Type
REMARK                         _______ _______ _______ _____ _____    ______ ____
ROOT
ATOM      1  C   UNL     1     -43.676  -0.577 -33.438  0.00  0.00    +0.000 C 
ATOM      2  C   UNL     1     -44.015  -1.844 -32.682  0.00  0.00    +0.000 C 
ATOM      3  C   UNL     1     -44.623  -2.849 -33.662  0.00  0.00    +0.000 C 
ATOM      4  C   UNL     1     -45.237  -4.052 -32.992  0.00  0.00    +0.000 C 
ATOM      5  C   UNL     1     -45.685  -4.001 -31.702  0.00  0.00    +0.000 C 
ATOM      6  C   UNL     1     -46.262  -5.231 -30.991  0.00  0.00    +0.000 C 
ATOM      7  C   UNL     1     -46.525  -6.352 -31.950  0.00  0.00    +0.000 A 
ATOM      8  C   UNL     1     -46.084  -6.350 -33.230  0.00  0.00    +0.000 A 
ATOM      9  N   UNL     1     -46.396  -7.498 -33.857  0.00  0.00    +0.000 N 
ATOM     10  N   UNL     1     -47.038  -8.260 -32.976  0.00  0.00    +0.000 NA
ATOM     11  C   UNL     1     -47.121  -7.580 -31.812  0.00  0.00    +0.000 A 
ATOM     12  N   UNL     1     -45.407  -5.236 -33.794  0.00  0.00    +0.000 N 
ATOM     13  C   UNL     1     -45.587  -2.730 -30.943  0.00  0.00    +0.000 C 
ATOM     14  O   UNL     1     -46.029  -2.656 -29.767  0.00  0.00    +0.000 OA
ATOM     15  C   UNL     1     -45.012  -1.501 -31.578  0.00  0.00    +0.000 C 
ATOM     16  C   UNL     1     -42.732  -2.400 -32.083  0.00  0.00    +0.000 C 
ATOM     17  H   UNL     1     -46.188  -7.730 -34.791  0.00  0.00    +0.000 HD
ATOM     18  H   UNL     1     -45.061  -5.272 -34.715  0.00  0.00    +0.000 HD
ENDROOT
BRANCH   6  19
ATOM     19  C   UNL     1     -45.359  -5.694 -29.882  0.00  0.00    +0.000 A 
ATOM     20  C   UNL     1     -45.859  -5.958 -28.600  0.00  0.00    +0.000 A 
ATOM     21  C   UNL     1     -44.983  -6.378 -27.597  0.00  0.00    +0.000 A 
ATOM     22  N   UNL     1     -43.658  -6.525 -27.867  0.00  0.00    +0.000 NA
ATOM     23  C   UNL     1     -43.151  -6.270 -29.104  0.00  0.00    +0.000 A 
ATOM     24  C   UNL     1     -43.994  -5.848 -30.134  0.00  0.00    +0.000 A 
ENDBRANCH   6  19
BRANCH  11  25
ATOM     25  O   UNL     1     -47.716  -8.076 -30.659  0.00  0.00    +0.000 OA
ATOM     26  H   UNL     1     -47.541  -8.954 -30.381  0.00  0.00    +0.000 HD
ENDBRANCH  11  25
TORSDOF 2
ENDMDL
MODEL 3
REMARK VINA RESULT:      -5.9     13.437     16.043
REMARK  Name = ZINC000018195880 ZINC18195880
REMARK  2 active torsions:
REMARK  status: ('A' for Active; 'I' for Inactive)
REMARK    1  A    between atoms: C_6  and  C_21
REMARK    2  A    between atoms: C_11  and  O_12
REMARK                            x       y       z     vdW  Elec       q    Type
REMARK                         _______ _______ _______ _____ _____    ______ ____
ROOT
ATOM      1  C   UNL     1     -46.179 -15.476 -18.215  0.00  0.00    +0.000 C 
ATOM      2  C   UNL     1     -45.562 -16.165 -19.413  0.00  0.00    +0.000 C 
ATOM      3  C   UNL     1     -45.913 -15.367 -20.670  0.00  0.00    +0.000 C 
ATOM      4  C   UNL     1     -45.579 -16.081 -21.954  0.00  0.00    +0.000 C 
ATOM      5  C   UNL     1     -45.494 -17.443 -22.014  0.00  0.00    +0.000 C 
ATOM      6  C   UNL     1     -45.101 -18.180 -23.300  0.00  0.00    +0.000 C 
ATOM      7  C   UNL     1     -45.114 -17.265 -24.487  0.00  0.00    +0.000 A 
ATOM      8  C   UNL     1     -45.225 -15.920 -24.385  0.00  0.00    +0.000 A 
ATOM      9  N   UNL     1     -45.144 -15.328 -25.589  0.00  0.00    +0.000 N 
ATOM     10  N   UNL     1     -44.968 -16.294 -26.486  0.00  0.00    +0.000 NA
ATOM     11  C   UNL     1     -44.943 -17.476 -25.832  0.00  0.00    +0.000 A 
ATOM     12  N   UNL     1     -45.429 -15.272 -23.136  0.00  0.00    +0.000 N 
ATOM     13  C   UNL     1     -45.758 -18.247 -20.795  0.00  0.00    +0.000 C 
ATOM     14  O   UNL     1     -45.722 -19.504 -20.842  0.00  0.00    +0.000 OA
ATOM     15  C   UNL     1     -46.125 -17.582 -19.503  0.00  0.00    +0.000 C 
ATOM     16  C   UNL     1     -44.054 -16.205 -19.217  0.00  0.00    +0.000 C 
ATOM     17  H   UNL     1     -45.203 -14.363 -25.772  0.00  0.00    +0.000 HD
ATOM     18  H   UNL     1     -45.468 -14.290 -23.081  0.00  0.00    +0.000 HD
ENDROOT
BRANCH   6  19
ATOM     19  C   UNL     1     -43.757 -18.838 -23.163  0.00  0.00    +0.000 A 
ATOM     20  C   UNL     1     -42.641 -18.124 -22.708  0.00  0.00    +0.000 A 
ATOM     21  C   UNL     1     -41.409 -18.774 -22.604  0.00  0.00    +0.000 A 
ATOM     22  N   UNL     1     -41.300 -20.086 -22.945  0.00  0.00    +0.000 NA
ATOM     23  C   UNL     1     -42.369 -20.797 -23.394  0.00  0.00    +0.000 A 
ATOM     24  C   UNL     1     -43.618 -20.184 -23.512  0.00  0.00    +0.000 A 
ENDBRANCH   6  19
BRANCH  11  25
ATOM     25  O   UNL     1     -44.761 -18.706 -26.451  0.00  0.00    +0.000 OA
ATOM     26  H   UNL     1     -43.900 -18.987 -26.692  0.00  0.00    +0.000 HD
ENDBRANCH  11  25
TORSDOF 2
ENDMDL
