MODEL 1
REMARK VINA RESULT:      -5.9      0.000      0.000
REMARK  Name = ZINC000005372517 ZINC05372517 PubChem-92261927
REMARK  9 active torsions:
REMARK  status: ('A' for Active; 'I' for Inactive)
REMARK    1  A    between atoms: N_14  and  C_20
REMARK    2  A    between atoms: C_20  and  C_21
REMARK    3  A    between atoms: C_21  and  O_22
REMARK    4  A    between atoms: C_21  and  C_24
REMARK    5  A    between atoms: C_24  and  O_25
REMARK    6  A    between atoms: C_24  and  C_27
REMARK    7  A    between atoms: C_27  and  O_28
REMARK    8  A    between atoms: C_27  and  C_30
REMARK    9  A    between atoms: C_30  and  O_31
REMARK                            x       y       z     vdW  Elec       q    Type
REMARK                         _______ _______ _______ _____ _____    ______ ____
ROOT
ATOM      1  C   UNL     1     -46.654 -16.217 -18.539  0.00  0.00    +0.000 C 
ATOM      2  C   UNL     1     -46.223 -16.440 -19.949  0.00  0.00    +0.000 A 
ATOM      3  C   UNL     1     -46.293 -15.374 -20.848  0.00  0.00    +0.000 A 
ATOM      4  C   UNL     1     -45.899 -15.540 -22.178  0.00  0.00    +0.000 A 
ATOM      5  C   UNL     1     -45.988 -14.459 -23.048  0.00  0.00    +0.000 A 
ATOM      6  C   UNL     1     -45.604 -14.606 -24.376  0.00  0.00    +0.000 A 
ATOM      7  C   UNL     1     -45.675 -13.557 -25.300  0.00  0.00    +0.000 A 
ATOM      8  O   UNL     1     -46.093 -12.420 -24.952  0.00  0.00    +0.000 OA
ATOM      9  N   UNL     1     -45.291 -13.764 -26.588  0.00  0.00    +0.000 N 
ATOM     10  C   UNL     1     -44.830 -14.965 -27.035  0.00  0.00    +0.000 A 
ATOM     11  O   UNL     1     -44.492 -15.093 -28.239  0.00  0.00    +0.000 OA
ATOM     12  C   UNL     1     -44.731 -16.057 -26.170  0.00  0.00    +0.000 A 
ATOM     13  C   UNL     1     -45.104 -15.924 -24.828  0.00  0.00    +0.000 A 
ATOM     14  N   UNL     1     -45.021 -16.966 -23.938  0.00  0.00    +0.000 N 
ATOM     15  C   UNL     1     -45.417 -16.795 -22.632  0.00  0.00    +0.000 A 
ATOM     16  C   UNL     1     -45.357 -17.859 -21.714  0.00  0.00    +0.000 A 
ATOM     17  C   UNL     1     -45.753 -17.691 -20.384  0.00  0.00    +0.000 A 
ATOM     18  C   UNL     1     -45.662 -18.857 -19.459  0.00  0.00    +0.000 C 
ATOM     19  H   UNL     1     -45.347 -13.015 -27.223  0.00  0.00    +0.000 HD
ENDROOT
BRANCH  14  20
ATOM     20  C   UNL     1     -44.501 -18.267 -24.381  0.00  0.00    +0.000 C 
BRANCH  20  21
ATOM     21  C   UNL     1     -42.990 -18.211 -24.580  0.00  0.00    +0.000 C 
BRANCH  21  22
ATOM     22  O   UNL     1     -42.662 -18.775 -25.814  0.00  0.00    +0.000 OA
ATOM     23  H   UNL     1     -42.458 -18.070 -26.449  0.00  0.00    +0.000 HD
ENDBRANCH  21  22
BRANCH  21  24
ATOM     24  C   UNL     1     -42.257 -18.926 -23.441  0.00  0.00    +0.000 C 
BRANCH  24  25
ATOM     25  O   UNL     1     -42.109 -18.094 -22.327  0.00  0.00    +0.000 OA
ATOM     26  H   UNL     1     -41.606 -17.304 -22.577  0.00  0.00    +0.000 HD
ENDBRANCH  24  25
BRANCH  24  27
ATOM     27  C   UNL     1     -42.892 -20.265 -23.051  0.00  0.00    +0.000 C 
BRANCH  27  28
ATOM     28  O   UNL     1     -43.042 -20.332 -21.666  0.00  0.00    +0.000 OA
ATOM     29  H   UNL     1     -43.949 -20.086 -21.426  0.00  0.00    +0.000 HD
ENDBRANCH  27  28
BRANCH  27  30
ATOM     30  C   UNL     1     -42.103 -21.474 -23.539  0.00  0.00    +0.000 C 
BRANCH  30  31
ATOM     31  O   UNL     1     -42.211 -22.520 -22.623  0.00  0.00    +0.000 OA
ATOM     32  H   UNL     1     -42.035 -22.186 -21.729  0.00  0.00    +0.000 HD
ENDBRANCH  30  31
ENDBRANCH  27  30
ENDBRANCH  24  27
ENDBRANCH  21  24
ENDBRANCH  20  21
ENDBRANCH  14  20
TORSDOF 9
ENDMDL
MODEL 2
REMARK VINA RESULT:      -5.8     28.968     31.217
REMARK  Name = ZINC000005372517 ZINC05372517 PubChem-92261927
REMARK  9 active torsions:
REMARK  status: ('A' for Active; 'I' for Inactive)
REMARK    1  A    between atoms: N_14  and  C_20
REMARK    2  A    between atoms: C_20  and  C_21
REMARK    3  A    between atoms: C_21  and  O_22
REMARK    4  A    between atoms: C_21  and  C_24
REMARK    5  A    between atoms: C_24  and  O_25
REMARK    6  A    between atoms: C_24  and  C_27
REMARK    7  A    between atoms: C_27  and  O_28
REMARK    8  A    between atoms: C_27  and  C_30
REMARK    9  A    between atoms: C_30  and  O_31
REMARK                            x       y       z     vdW  Elec       q    Type
REMARK                         _______ _______ _______ _____ _____    ______ ____
ROOT
ATOM      1  C   UNL     1     -39.982  11.140 -19.693  0.00  0.00    +0.000 C 
ATOM      2  C   UNL     1     -40.143  11.859 -20.989  0.00  0.00    +0.000 A 
ATOM      3  C   UNL     1     -41.176  12.789 -21.116  0.00  0.00    +0.000 A 
ATOM      4  C   UNL     1     -41.363  13.485 -22.313  0.00  0.00    +0.000 A 
ATOM      5  C   UNL     1     -42.406  14.400 -22.406  0.00  0.00    +0.000 A 
ATOM      6  C   UNL     1     -42.609  15.098 -23.590  0.00  0.00    +0.000 A 
ATOM      7  C   UNL     1     -43.644  16.028 -23.747  0.00  0.00    +0.000 A 
ATOM      8  O   UNL     1     -44.440  16.272 -22.801  0.00  0.00    +0.000 OA
ATOM      9  N   UNL     1     -43.796  16.676 -24.933  0.00  0.00    +0.000 N 
ATOM     10  C   UNL     1     -42.976  16.463 -25.999  0.00  0.00    +0.000 A 
ATOM     11  O   UNL     1     -43.170  17.093 -27.070  0.00  0.00    +0.000 OA
ATOM     12  C   UNL     1     -41.922  15.551 -25.917  0.00  0.00    +0.000 A 
ATOM     13  C   UNL     1     -41.697  14.846 -24.729  0.00  0.00    +0.000 A 
ATOM     14  N   UNL     1     -40.672  13.943 -24.597  0.00  0.00    +0.000 N 
ATOM     15  C   UNL     1     -40.500  13.258 -23.416  0.00  0.00    +0.000 A 
ATOM     16  C   UNL     1     -39.467  12.314 -23.272  0.00  0.00    +0.000 A 
ATOM     17  C   UNL     1     -39.283  11.618 -22.074  0.00  0.00    +0.000 A 
ATOM     18  C   UNL     1     -38.168  10.633 -21.983  0.00  0.00    +0.000 C 
ATOM     19  H   UNL     1     -44.529  17.326 -25.025  0.00  0.00    +0.000 HD
ENDROOT
BRANCH  14  20
ATOM     20  C   UNL     1     -39.752  13.711 -25.718  0.00  0.00    +0.000 C 
BRANCH  20  21
ATOM     21  C   UNL     1     -40.417  12.873 -26.805  0.00  0.00    +0.000 C 
BRANCH  21  22
ATOM     22  O   UNL     1     -40.370  11.524 -26.447  0.00  0.00    +0.000 OA
ATOM     23  H   UNL     1     -39.925  11.019 -27.145  0.00  0.00    +0.000 HD
ENDBRANCH  21  22
BRANCH  21  24
ATOM     24  C   UNL     1     -39.747  13.100 -28.164  0.00  0.00    +0.000 C 
BRANCH  24  25
ATOM     25  O   UNL     1     -39.205  11.916 -28.670  0.00  0.00    +0.000 OA
ATOM     26  H   UNL     1     -38.963  12.041 -29.601  0.00  0.00    +0.000 HD
ENDBRANCH  24  25
BRANCH  24  27
ATOM     27  C   UNL     1     -40.663  13.773 -29.192  0.00  0.00    +0.000 C 
BRANCH  27  28
ATOM     28  O   UNL     1     -41.981  13.755 -28.734  0.00  0.00    +0.000 OA
ATOM     29  H   UNL     1     -42.560  13.400 -29.427  0.00  0.00    +0.000 HD
ENDBRANCH  27  28
BRANCH  27  30
ATOM     30  C   UNL     1     -40.593  13.135 -30.574  0.00  0.00    +0.000 C 
BRANCH  30  31
ATOM     31  O   UNL     1     -41.870  12.767 -30.999  0.00  0.00    +0.000 OA
ATOM     32  H   UNL     1     -41.886  11.815 -31.187  0.00  0.00    +0.000 HD
ENDBRANCH  30  31
ENDBRANCH  27  30
ENDBRANCH  24  27
ENDBRANCH  21  24
ENDBRANCH  20  21
ENDBRANCH  14  20
TORSDOF 9
ENDMDL
MODEL 3
REMARK VINA RESULT:      -5.7      2.281      5.503
REMARK  Name = ZINC000005372517 ZINC05372517 PubChem-92261927
REMARK  9 active torsions:
REMARK  status: ('A' for Active; 'I' for Inactive)
REMARK    1  A    between atoms: N_14  and  C_20
REMARK    2  A    between atoms: C_20  and  C_21
REMARK    3  A    between atoms: C_21  and  O_22
REMARK    4  A    between atoms: C_21  and  C_24
REMARK    5  A    between atoms: C_24  and  O_25
REMARK    6  A    between atoms: C_24  and  C_27
REMARK    7  A    between atoms: C_27  and  O_28
REMARK    8  A    between atoms: C_27  and  C_30
REMARK    9  A    between atoms: C_30  and  O_31
REMARK                            x       y       z     vdW  Elec       q    Type
REMARK                         _______ _______ _______ _____ _____    ______ ____
ROOT
ATOM      1  C   UNL     1     -46.010 -11.660 -25.945  0.00  0.00    +0.000 C 
ATOM      2  C   UNL     1     -45.842 -13.049 -25.431  0.00  0.00    +0.000 A 
ATOM      3  C   UNL     1     -45.846 -13.258 -24.051  0.00  0.00    +0.000 A 
ATOM      4  C   UNL     1     -45.691 -14.544 -23.526  0.00  0.00    +0.000 A 
ATOM      5  C   UNL     1     -45.694 -14.716 -22.147  0.00  0.00    +0.000 A 
ATOM      6  C   UNL     1     -45.537 -15.987 -21.607  0.00  0.00    +0.000 A 
ATOM      7  C   UNL     1     -45.526 -16.222 -20.227  0.00  0.00    +0.000 A 
ATOM      8  O   UNL     1     -45.665 -15.272 -19.411  0.00  0.00    +0.000 OA
ATOM      9  N   UNL     1     -45.362 -17.489 -19.759  0.00  0.00    +0.000 N 
ATOM     10  C   UNL     1     -45.206 -18.563 -20.581  0.00  0.00    +0.000 A 
ATOM     11  O   UNL     1     -45.057 -19.709 -20.086  0.00  0.00    +0.000 OA
ATOM     12  C   UNL     1     -45.207 -18.405 -21.968  0.00  0.00    +0.000 A 
ATOM     13  C   UNL     1     -45.373 -17.134 -22.528  0.00  0.00    +0.000 A 
ATOM     14  N   UNL     1     -45.385 -16.928 -23.886  0.00  0.00    +0.000 N 
ATOM     15  C   UNL     1     -45.532 -15.657 -24.392  0.00  0.00    +0.000 A 
ATOM     16  C   UNL     1     -45.527 -15.427 -25.780  0.00  0.00    +0.000 A 
ATOM     17  C   UNL     1     -45.680 -14.141 -26.302  0.00  0.00    +0.000 A 
ATOM     18  C   UNL     1     -45.669 -13.963 -27.783  0.00  0.00    +0.000 C 
ATOM     19  H   UNL     1     -45.357 -17.635 -18.786  0.00  0.00    +0.000 HD
ENDROOT
BRANCH  14  20
ATOM     20  C   UNL     1     -45.248 -18.069 -24.800  0.00  0.00    +0.000 C 
BRANCH  20  21
ATOM     21  C   UNL     1     -43.785 -18.470 -24.956  0.00  0.00    +0.000 C 
BRANCH  21  22
ATOM     22  O   UNL     1     -42.973 -17.352 -24.752  0.00  0.00    +0.000 OA
ATOM     23  H   UNL     1     -43.191 -16.670 -25.406  0.00  0.00    +0.000 HD
ENDBRANCH  21  22
BRANCH  21  24
ATOM     24  C   UNL     1     -43.525 -19.089 -26.333  0.00  0.00    +0.000 C 
BRANCH  24  25
ATOM     25  O   UNL     1     -44.720 -19.336 -27.014  0.00  0.00    +0.000 OA
ATOM     26  H   UNL     1     -44.525 -19.584 -27.932  0.00  0.00    +0.000 HD
ENDBRANCH  24  25
BRANCH  24  27
ATOM     27  C   UNL     1     -42.554 -18.276 -27.195  0.00  0.00    +0.000 C 
BRANCH  27  28
ATOM     28  O   UNL     1     -43.207 -17.159 -27.717  0.00  0.00    +0.000 OA
ATOM     29  H   UNL     1     -42.644 -16.737 -28.385  0.00  0.00    +0.000 HD
ENDBRANCH  27  28
BRANCH  27  30
ATOM     30  C   UNL     1     -41.932 -19.081 -28.329  0.00  0.00    +0.000 C 
BRANCH  30  31
ATOM     31  O   UNL     1     -42.859 -19.259 -29.357  0.00  0.00    +0.000 OA
ATOM     32  H   UNL     1     -42.871 -20.192 -29.623  0.00  0.00    +0.000 HD
ENDBRANCH  30  31
ENDBRANCH  27  30
ENDBRANCH  24  27
ENDBRANCH  21  24
ENDBRANCH  20  21
ENDBRANCH  14  20
TORSDOF 9
ENDMDL
