MODEL 1
REMARK VINA RESULT:      -7.0      0.000      0.000
REMARK  Name = ZINC000224489095
REMARK  3 active torsions:
REMARK  status: ('A' for Active; 'I' for Inactive)
REMARK    1  A    between atoms: C_1  and  C_25
REMARK    2  A    between atoms: N_3  and  C_5
REMARK    3  A    between atoms: N_27  and  S_28
REMARK                            x       y       z     vdW  Elec       q    Type
REMARK                         _______ _______ _______ _____ _____    ______ ____
ROOT
ATOM      1  C   UNL     1     -46.581  -3.596 -32.556  0.00  0.00    +0.000 C 
ATOM      2  O   UNL     1     -47.039  -2.871 -33.478  0.00  0.00    +0.000 OA
ATOM      3  N   UNL     1     -47.496  -4.345 -31.745  0.00  0.00    +0.000 N 
ATOM      4  H   UNL     1     -48.424  -4.408 -32.071  0.00  0.00    +0.000 HD
ENDROOT
BRANCH   3   5
ATOM      5  C   UNL     1     -47.205  -5.014 -30.507  0.00  0.00    +0.000 A 
ATOM      6  C   UNL     1     -46.978  -4.289 -29.307  0.00  0.00    +0.000 A 
ATOM      7  C   UNL     1     -46.708  -4.949 -28.090  0.00  0.00    +0.000 A 
ATOM      8  C   UNL     1     -46.677  -6.343 -28.091  0.00  0.00    +0.000 A 
ATOM      9  C   UNL     1     -46.906  -7.028 -29.237  0.00  0.00    +0.000 A 
ATOM     10  C   UNL     1     -46.842  -8.372 -29.059  0.00  0.00    +0.000 A 
ATOM     11  C   UNL     1     -47.049  -9.234 -30.140  0.00  0.00    +0.000 A 
ATOM     12  C   UNL     1     -47.327  -8.668 -31.403  0.00  0.00    +0.000 A 
ATOM     13  C   UNL     1     -47.391  -7.264 -31.568  0.00  0.00    +0.000 A 
ATOM     14  C   UNL     1     -47.175  -6.423 -30.461  0.00  0.00    +0.000 A 
ATOM     15  C   UNL     1     -46.532  -8.690 -27.632  0.00  0.00    +0.000 C 
ATOM     16  C   UNL     1     -46.428  -7.291 -26.962  0.00  0.00    +0.000 C 
ENDBRANCH   3   5
BRANCH   1  25
ATOM     17  C   UNL     1     -40.374   0.309 -32.244  0.00  0.00    +0.000 C 
ATOM     18  C   UNL     1     -41.058  -0.984 -32.512  0.00  0.00    +0.000 A 
ATOM     19  C   UNL     1     -40.319  -2.088 -32.949  0.00  0.00    +0.000 A 
ATOM     20  C   UNL     1     -40.960  -3.303 -33.207  0.00  0.00    +0.000 A 
ATOM     21  C   UNL     1     -42.344  -3.419 -33.025  0.00  0.00    +0.000 A 
ATOM     22  C   UNL     1     -43.081  -2.311 -32.568  0.00  0.00    +0.000 A 
ATOM     23  C   UNL     1     -42.439  -1.094 -32.322  0.00  0.00    +0.000 A 
ATOM     24  O   UNL     1     -44.461  -2.433 -32.367  0.00  0.00    +0.000 OA
ATOM     25  C   UNL     1     -45.097  -3.715 -32.377  0.00  0.00    +0.000 C 
ATOM     26  C   UNL     1     -44.496  -4.598 -33.469  0.00  0.00    +0.000 C 
ATOM     27  N   UNL     1     -43.045  -4.642 -33.311  0.00  0.00    +0.000 N 
BRANCH  27  28
ATOM     28  S   UNL     1     -42.233  -6.174 -33.399  0.00  0.00    +0.000 S 
ATOM     29  C   UNL     1     -43.426  -7.491 -33.498  0.00  0.00    +0.000 C 
ATOM     30  O   UNL     1     -41.367  -6.357 -32.184  0.00  0.00    +0.000 OA
ATOM     31  O   UNL     1     -41.370  -6.218 -34.629  0.00  0.00    +0.000 OA
ENDBRANCH  27  28
ENDBRANCH   1  25
TORSDOF 3
ENDMDL
MODEL 2
REMARK VINA RESULT:      -6.7      2.732      4.323
REMARK  Name = ZINC000224489095
REMARK  3 active torsions:
REMARK  status: ('A' for Active; 'I' for Inactive)
REMARK    1  A    between atoms: C_1  and  C_25
REMARK    2  A    between atoms: N_3  and  C_5
REMARK    3  A    between atoms: N_27  and  S_28
REMARK                            x       y       z     vdW  Elec       q    Type
REMARK                         _______ _______ _______ _____ _____    ______ ____
ROOT
ATOM      1  C   UNL     1     -47.107  -5.846 -29.036  0.00  0.00    +0.000 C 
ATOM      2  O   UNL     1     -47.619  -4.970 -28.290  0.00  0.00    +0.000 OA
ATOM      3  N   UNL     1     -47.370  -7.229 -28.761  0.00  0.00    +0.000 N 
ATOM      4  H   UNL     1     -48.095  -7.421 -28.122  0.00  0.00    +0.000 HD
ENDROOT
BRANCH   3   5
ATOM      5  C   UNL     1     -46.690  -8.365 -29.320  0.00  0.00    +0.000 A 
ATOM      6  C   UNL     1     -47.214  -9.066 -30.438  0.00  0.00    +0.000 A 
ATOM      7  C   UNL     1     -46.536 -10.171 -30.995  0.00  0.00    +0.000 A 
ATOM      8  C   UNL     1     -45.325 -10.557 -30.421  0.00  0.00    +0.000 A 
ATOM      9  C   UNL     1     -44.827  -9.876 -29.360  0.00  0.00    +0.000 A 
ATOM     10  C   UNL     1     -43.643 -10.381 -28.930  0.00  0.00    +0.000 A 
ATOM     11  C   UNL     1     -42.987  -9.803 -27.840  0.00  0.00    +0.000 A 
ATOM     12  C   UNL     1     -43.587  -8.688 -27.214  0.00  0.00    +0.000 A 
ATOM     13  C   UNL     1     -44.821  -8.175 -27.679  0.00  0.00    +0.000 A 
ATOM     14  C   UNL     1     -45.458  -8.782 -28.776  0.00  0.00    +0.000 A 
ATOM     15  C   UNL     1     -43.246 -11.553 -29.769  0.00  0.00    +0.000 C 
ATOM     16  C   UNL     1     -44.402 -11.669 -30.803  0.00  0.00    +0.000 C 
ENDBRANCH   3   5
BRANCH   1  25
ATOM     17  C   UNL     1     -44.001  -0.027 -32.254  0.00  0.00    +0.000 C 
ATOM     18  C   UNL     1     -44.577  -1.392 -32.367  0.00  0.00    +0.000 A 
ATOM     19  C   UNL     1     -44.677  -2.008 -33.619  0.00  0.00    +0.000 A 
ATOM     20  C   UNL     1     -45.223  -3.289 -33.728  0.00  0.00    +0.000 A 
ATOM     21  C   UNL     1     -45.669  -3.964 -32.584  0.00  0.00    +0.000 A 
ATOM     22  C   UNL     1     -45.550  -3.347 -31.324  0.00  0.00    +0.000 A 
ATOM     23  C   UNL     1     -45.013  -2.061 -31.219  0.00  0.00    +0.000 A 
ATOM     24  O   UNL     1     -45.977  -4.029 -30.178  0.00  0.00    +0.000 OA
ATOM     25  C   UNL     1     -46.299  -5.423 -30.226  0.00  0.00    +0.000 C 
ATOM     26  C   UNL     1     -47.042  -5.751 -31.520  0.00  0.00    +0.000 C 
ATOM     27  N   UNL     1     -46.266  -5.269 -32.658  0.00  0.00    +0.000 N 
BRANCH  27  28
ATOM     28  S   UNL     1     -46.033  -6.316 -34.024  0.00  0.00    +0.000 S 
ATOM     29  C   UNL     1     -44.300  -6.431 -34.414  0.00  0.00    +0.000 C 
ATOM     30  O   UNL     1     -46.789  -5.777 -35.207  0.00  0.00    +0.000 OA
ATOM     31  O   UNL     1     -46.542  -7.692 -33.699  0.00  0.00    +0.000 OA
ENDBRANCH  27  28
ENDBRANCH   1  25
TORSDOF 3
ENDMDL
MODEL 3
REMARK VINA RESULT:      -6.6     10.966     15.291
REMARK  Name = ZINC000224489095
REMARK  3 active torsions:
REMARK  status: ('A' for Active; 'I' for Inactive)
REMARK    1  A    between atoms: C_1  and  C_25
REMARK    2  A    between atoms: N_3  and  C_5
REMARK    3  A    between atoms: N_27  and  S_28
REMARK                            x       y       z     vdW  Elec       q    Type
REMARK                         _______ _______ _______ _____ _____    ______ ____
ROOT
ATOM      1  C   UNL     1     -44.841 -18.657 -25.670  0.00  0.00    +0.000 C 
ATOM      2  O   UNL     1     -45.604 -19.657 -25.715  0.00  0.00    +0.000 OA
ATOM      3  N   UNL     1     -44.214 -18.209 -26.880  0.00  0.00    +0.000 N 
ATOM      4  H   UNL     1     -44.562 -18.585 -27.721  0.00  0.00    +0.000 HD
ENDROOT
BRANCH   3   5
ATOM      5  C   UNL     1     -43.132 -17.270 -26.996  0.00  0.00    +0.000 A 
ATOM      6  C   UNL     1     -41.777 -17.687 -26.912  0.00  0.00    +0.000 A 
ATOM      7  C   UNL     1     -40.717 -16.765 -27.043  0.00  0.00    +0.000 A 
ATOM      8  C   UNL     1     -41.034 -15.425 -27.265  0.00  0.00    +0.000 A 
ATOM      9  C   UNL     1     -42.330 -15.038 -27.354  0.00  0.00    +0.000 A 
ATOM     10  C   UNL     1     -42.458 -13.705 -27.575  0.00  0.00    +0.000 A 
ATOM     11  C   UNL     1     -43.727 -13.131 -27.689  0.00  0.00    +0.000 A 
ATOM     12  C   UNL     1     -44.854 -13.974 -27.574  0.00  0.00    +0.000 A 
ATOM     13  C   UNL     1     -44.700 -15.362 -27.345  0.00  0.00    +0.000 A 
ATOM     14  C   UNL     1     -43.409 -15.908 -27.231  0.00  0.00    +0.000 A 
ATOM     15  C   UNL     1     -41.111 -13.062 -27.651  0.00  0.00    +0.000 C 
ATOM     16  C   UNL     1     -40.128 -14.250 -27.447  0.00  0.00    +0.000 C 
ENDBRANCH   3   5
BRANCH   1  25
ATOM     17  C   UNL     1     -44.330 -19.587 -18.407  0.00  0.00    +0.000 C 
ATOM     18  C   UNL     1     -44.659 -18.712 -19.563  0.00  0.00    +0.000 A 
ATOM     19  C   UNL     1     -45.146 -17.419 -19.344  0.00  0.00    +0.000 A 
ATOM     20  C   UNL     1     -45.463 -16.597 -20.428  0.00  0.00    +0.000 A 
ATOM     21  C   UNL     1     -45.290 -17.063 -21.738  0.00  0.00    +0.000 A 
ATOM     22  C   UNL     1     -44.784 -18.358 -21.953  0.00  0.00    +0.000 A 
ATOM     23  C   UNL     1     -44.478 -19.183 -20.867  0.00  0.00    +0.000 A 
ATOM     24  O   UNL     1     -44.592 -18.817 -23.263  0.00  0.00    +0.000 OA
ATOM     25  C   UNL     1     -44.664 -17.920 -24.376  0.00  0.00    +0.000 C 
ATOM     26  C   UNL     1     -45.794 -16.914 -24.175  0.00  0.00    +0.000 C 
ATOM     27  N   UNL     1     -45.634 -16.260 -22.880  0.00  0.00    +0.000 N 
BRANCH  27  28
ATOM     28  S   UNL     1     -45.793 -14.533 -22.781  0.00  0.00    +0.000 S 
ATOM     29  C   UNL     1     -44.244 -13.806 -22.293  0.00  0.00    +0.000 C 
ATOM     30  O   UNL     1     -46.861 -14.181 -21.783  0.00  0.00    +0.000 OA
ATOM     31  O   UNL     1     -46.176 -13.983 -24.126  0.00  0.00    +0.000 OA
ENDBRANCH  27  28
ENDBRANCH   1  25
TORSDOF 3
ENDMDL
