MODEL 1
REMARK VINA RESULT:      -7.6      0.000      0.000
REMARK  Name = ZINC000064605344 ZINC64605344 ChemDiv-J046-1135 MCULE-1856858286 MolPort-010-723-805 PubChem-50813209
REMARK  7 active torsions:
REMARK  status: ('A' for Active; 'I' for Inactive)
REMARK    1  A    between atoms: N_1  and  C_22
REMARK    2  A    between atoms: C_3  and  C_8
REMARK    3  A    between atoms: C_5  and  N_15
REMARK    4  A    between atoms: C_16  and  C_19
REMARK    5  A    between atoms: C_22  and  C_24
REMARK    6  A    between atoms: N_23  and  C_28
REMARK    7  A    between atoms: C_27  and  O_35
REMARK                            x       y       z     vdW  Elec       q    Type
REMARK                         _______ _______ _______ _____ _____    ______ ____
ROOT
ATOM      1  N   UNL     1     -47.306  -6.255 -30.058  0.00  0.00    +0.000 N 
ATOM      2  N   UNL     1     -47.365  -5.838 -28.791  0.00  0.00    +0.000 NA
ATOM      3  C   UNL     1     -47.002  -4.581 -28.423  0.00  0.00    +0.000 A 
ATOM      4  C   UNL     1     -46.545  -3.700 -29.405  0.00  0.00    +0.000 A 
ATOM      5  C   UNL     1     -46.470  -4.117 -30.734  0.00  0.00    +0.000 A 
ATOM      6  C   UNL     1     -46.861  -5.423 -31.049  0.00  0.00    +0.000 A 
ATOM      7  O   UNL     1     -46.799  -5.827 -32.243  0.00  0.00    +0.000 OA
ENDROOT
BRANCH   3   8
ATOM      8  C   UNL     1     -47.085  -4.168 -27.006  0.00  0.00    +0.000 A 
ATOM      9  C   UNL     1     -46.938  -5.122 -25.986  0.00  0.00    +0.000 A 
ATOM     10  C   UNL     1     -47.018  -4.743 -24.643  0.00  0.00    +0.000 A 
ATOM     11  C   UNL     1     -47.240  -3.404 -24.307  0.00  0.00    +0.000 A 
ATOM     12  C   UNL     1     -47.322  -3.000 -22.879  0.00  0.00    +0.000 C 
ATOM     13  C   UNL     1     -47.383  -2.446 -25.313  0.00  0.00    +0.000 A 
ATOM     14  C   UNL     1     -47.307  -2.825 -26.656  0.00  0.00    +0.000 A 
ENDBRANCH   3   8
BRANCH   5  15
ATOM     15  N   UNL     1     -45.999  -3.244 -31.773  0.00  0.00    +0.000 N 
ATOM     16  C   UNL     1     -44.630  -2.991 -32.128  0.00  0.00    +0.000 C 
ATOM     17  O   UNL     1     -43.683  -3.538 -31.501  0.00  0.00    +0.000 OA
ATOM     18  H   UNL     1     -46.685  -2.772 -32.298  0.00  0.00    +0.000 HD
BRANCH  16  19
ATOM     19  C   UNL     1     -44.311  -2.062 -33.253  0.00  0.00    +0.000 C 
ATOM     20  C   UNL     1     -43.130  -2.583 -34.048  0.00  0.00    +0.000 C 
ATOM     21  C   UNL     1     -44.005  -0.673 -32.726  0.00  0.00    +0.000 C 
ENDBRANCH  16  19
ENDBRANCH   5  15
BRANCH   1  22
ATOM     22  C   UNL     1     -47.676  -7.633 -30.353  0.00  0.00    +0.000 C 
BRANCH  22  24
ATOM     23  N   UNL     1     -47.748  -9.040 -28.258  0.00  0.00    +0.000 N 
ATOM     24  C   UNL     1     -47.013  -8.548 -29.383  0.00  0.00    +0.000 C 
ATOM     25  O   UNL     1     -45.809  -8.875 -29.560  0.00  0.00    +0.000 OA
ATOM     26  H   UNL     1     -48.731  -9.018 -28.311  0.00  0.00    +0.000 HD
BRANCH  23  28
ATOM     27  C   UNL     1     -46.725 -10.901 -26.963  0.00  0.00    +0.000 A 
ATOM     28  C   UNL     1     -47.161  -9.561 -27.060  0.00  0.00    +0.000 A 
ATOM     29  C   UNL     1     -46.959  -8.689 -25.985  0.00  0.00    +0.000 A 
ATOM     30  C   UNL     1     -46.377  -9.144 -24.800  0.00  0.00    +0.000 A 
ATOM     31  C   UNL     1     -46.184  -8.210 -23.661  0.00  0.00    +0.000 C 
ATOM     32  C   UNL     1     -45.980 -10.477 -24.685  0.00  0.00    +0.000 A 
ATOM     33  C   UNL     1     -46.149 -11.350 -25.762  0.00  0.00    +0.000 A 
BRANCH  27  35
ATOM     34  C   UNL     1     -46.648 -13.163 -27.974  0.00  0.00    +0.000 C 
ATOM     35  O   UNL     1     -46.841 -11.758 -28.063  0.00  0.00    +0.000 OA
ENDBRANCH  27  35
ENDBRANCH  23  28
ENDBRANCH  22  24
ENDBRANCH   1  22
TORSDOF 7
ENDMDL
MODEL 2
REMARK VINA RESULT:      -7.2      1.776      2.388
REMARK  Name = ZINC000064605344 ZINC64605344 ChemDiv-J046-1135 MCULE-1856858286 MolPort-010-723-805 PubChem-50813209
REMARK  7 active torsions:
REMARK  status: ('A' for Active; 'I' for Inactive)
REMARK    1  A    between atoms: N_1  and  C_22
REMARK    2  A    between atoms: C_3  and  C_8
REMARK    3  A    between atoms: C_5  and  N_15
REMARK    4  A    between atoms: C_16  and  C_19
REMARK    5  A    between atoms: C_22  and  C_24
REMARK    6  A    between atoms: N_23  and  C_28
REMARK    7  A    between atoms: C_27  and  O_35
REMARK                            x       y       z     vdW  Elec       q    Type
REMARK                         _______ _______ _______ _____ _____    ______ ____
ROOT
ATOM      1  N   UNL     1     -46.696  -6.906 -28.464  0.00  0.00    +0.000 N 
ATOM      2  N   UNL     1     -46.819  -6.125 -27.388  0.00  0.00    +0.000 NA
ATOM      3  C   UNL     1     -46.977  -4.777 -27.484  0.00  0.00    +0.000 A 
ATOM      4  C   UNL     1     -47.005  -4.194 -28.751  0.00  0.00    +0.000 A 
ATOM      5  C   UNL     1     -46.874  -4.992 -29.889  0.00  0.00    +0.000 A 
ATOM      6  C   UNL     1     -46.716  -6.373 -29.723  0.00  0.00    +0.000 A 
ATOM      7  O   UNL     1     -46.589  -7.116 -30.735  0.00  0.00    +0.000 OA
ENDROOT
BRANCH   3   8
ATOM      8  C   UNL     1     -47.108  -3.956 -26.262  0.00  0.00    +0.000 A 
ATOM      9  C   UNL     1     -46.999  -4.555 -24.997  0.00  0.00    +0.000 A 
ATOM     10  C   UNL     1     -47.123  -3.788 -23.835  0.00  0.00    +0.000 A 
ATOM     11  C   UNL     1     -47.354  -2.412 -23.928  0.00  0.00    +0.000 A 
ATOM     12  C   UNL     1     -47.484  -1.596 -22.693  0.00  0.00    +0.000 C 
ATOM     13  C   UNL     1     -47.460  -1.805 -25.181  0.00  0.00    +0.000 A 
ATOM     14  C   UNL     1     -47.338  -2.572 -26.343  0.00  0.00    +0.000 A 
ENDBRANCH   3   8
BRANCH   5  15
ATOM     15  N   UNL     1     -46.890  -4.430 -31.211  0.00  0.00    +0.000 N 
ATOM     16  C   UNL     1     -46.360  -3.155 -31.609  0.00  0.00    +0.000 C 
ATOM     17  O   UNL     1     -45.824  -2.381 -30.772  0.00  0.00    +0.000 OA
ATOM     18  H   UNL     1     -47.305  -4.975 -31.917  0.00  0.00    +0.000 HD
BRANCH  16  19
ATOM     19  C   UNL     1     -46.444  -2.728 -33.038  0.00  0.00    +0.000 C 
ATOM     20  C   UNL     1     -47.078  -3.819 -33.879  0.00  0.00    +0.000 C 
ATOM     21  C   UNL     1     -45.065  -2.398 -33.577  0.00  0.00    +0.000 C 
ENDBRANCH  16  19
ENDBRANCH   5  15
BRANCH   1  22
ATOM     22  C   UNL     1     -46.488  -8.334 -28.263  0.00  0.00    +0.000 C 
BRANCH  22  24
ATOM     23  N   UNL     1     -46.830  -9.150 -25.899  0.00  0.00    +0.000 N 
ATOM     24  C   UNL     1     -45.969  -8.577 -26.889  0.00  0.00    +0.000 C 
ATOM     25  O   UNL     1     -44.781  -8.269 -26.609  0.00  0.00    +0.000 OA
ATOM     26  H   UNL     1     -47.621  -9.644 -26.214  0.00  0.00    +0.000 HD
BRANCH  23  28
ATOM     27  C   UNL     1     -45.768  -9.942 -23.793  0.00  0.00    +0.000 A 
ATOM     28  C   UNL     1     -46.627  -9.058 -24.485  0.00  0.00    +0.000 A 
ATOM     29  C   UNL     1     -47.251  -8.017 -23.789  0.00  0.00    +0.000 A 
ATOM     30  C   UNL     1     -47.073  -7.874 -22.412  0.00  0.00    +0.000 A 
ATOM     31  C   UNL     1     -47.756  -6.773 -21.685  0.00  0.00    +0.000 C 
ATOM     32  C   UNL     1     -46.257  -8.769 -21.718  0.00  0.00    +0.000 A 
ATOM     33  C   UNL     1     -45.605  -9.794 -22.405  0.00  0.00    +0.000 A 
BRANCH  27  35
ATOM     34  C   UNL     1     -45.581 -12.242 -24.700  0.00  0.00    +0.000 C 
ATOM     35  O   UNL     1     -45.070 -10.932 -24.493  0.00  0.00    +0.000 OA
ENDBRANCH  27  35
ENDBRANCH  23  28
ENDBRANCH  22  24
ENDBRANCH   1  22
TORSDOF 7
ENDMDL
MODEL 3
REMARK VINA RESULT:      -7.1      1.530      7.215
REMARK  Name = ZINC000064605344 ZINC64605344 ChemDiv-J046-1135 MCULE-1856858286 MolPort-010-723-805 PubChem-50813209
REMARK  7 active torsions:
REMARK  status: ('A' for Active; 'I' for Inactive)
REMARK    1  A    between atoms: N_1  and  C_22
REMARK    2  A    between atoms: C_3  and  C_8
REMARK    3  A    between atoms: C_5  and  N_15
REMARK    4  A    between atoms: C_16  and  C_19
REMARK    5  A    between atoms: C_22  and  C_24
REMARK    6  A    between atoms: N_23  and  C_28
REMARK    7  A    between atoms: C_27  and  O_35
REMARK                            x       y       z     vdW  Elec       q    Type
REMARK                         _______ _______ _______ _____ _____    ______ ____
ROOT
ATOM      1  N   UNL     1     -47.277  -5.974 -29.496  0.00  0.00    +0.000 N 
ATOM      2  N   UNL     1     -47.368  -5.064 -28.524  0.00  0.00    +0.000 NA
ATOM      3  C   UNL     1     -46.981  -5.325 -27.247  0.00  0.00    +0.000 A 
ATOM      4  C   UNL     1     -46.476  -6.591 -26.944  0.00  0.00    +0.000 A 
ATOM      5  C   UNL     1     -46.376  -7.558 -27.945  0.00  0.00    +0.000 A 
ATOM      6  C   UNL     1     -46.791  -7.227 -29.241  0.00  0.00    +0.000 A 
ATOM      7  O   UNL     1     -46.716  -8.086 -30.163  0.00  0.00    +0.000 OA
ENDROOT
BRANCH   3   8
ATOM      8  C   UNL     1     -47.103  -4.283 -26.205  0.00  0.00    +0.000 A 
ATOM      9  C   UNL     1     -47.286  -2.940 -26.572  0.00  0.00    +0.000 A 
ATOM     10  C   UNL     1     -47.400  -1.946 -25.596  0.00  0.00    +0.000 A 
ATOM     11  C   UNL     1     -47.337  -2.288 -24.241  0.00  0.00    +0.000 A 
ATOM     12  C   UNL     1     -47.461  -1.232 -23.203  0.00  0.00    +0.000 C 
ATOM     13  C   UNL     1     -47.160  -3.621 -23.865  0.00  0.00    +0.000 A 
ATOM     14  C   UNL     1     -47.043  -4.614 -24.842  0.00  0.00    +0.000 A 
ENDBRANCH   3   8
BRANCH   5  15
ATOM     15  N   UNL     1     -45.871  -8.875 -27.674  0.00  0.00    +0.000 N 
ATOM     16  C   UNL     1     -46.549  -9.929 -26.973  0.00  0.00    +0.000 C 
ATOM     17  O   UNL     1     -47.705  -9.759 -26.501  0.00  0.00    +0.000 OA
ATOM     18  H   UNL     1     -44.965  -9.076 -28.004  0.00  0.00    +0.000 HD
BRANCH  16  19
ATOM     19  C   UNL     1     -45.882 -11.253 -26.791  0.00  0.00    +0.000 C 
ATOM     20  C   UNL     1     -46.692 -12.348 -27.459  0.00  0.00    +0.000 C 
ATOM     21  C   UNL     1     -45.711 -11.565 -25.317  0.00  0.00    +0.000 C 
ENDBRANCH  16  19
ENDBRANCH   5  15
BRANCH   1  22
ATOM     22  C   UNL     1     -47.756  -5.619 -30.826  0.00  0.00    +0.000 C 
BRANCH  22  24
ATOM     23  N   UNL     1     -45.402  -4.716 -30.959  0.00  0.00    +0.000 N 
ATOM     24  C   UNL     1     -46.665  -4.955 -31.591  0.00  0.00    +0.000 C 
ATOM     25  O   UNL     1     -46.866  -4.603 -32.784  0.00  0.00    +0.000 OA
ATOM     26  H   UNL     1     -45.181  -5.254 -30.166  0.00  0.00    +0.000 HD
BRANCH  23  28
ATOM     27  C   UNL     1     -43.144  -4.128 -31.822  0.00  0.00    +0.000 A 
ATOM     28  C   UNL     1     -44.438  -3.752 -31.397  0.00  0.00    +0.000 A 
ATOM     29  C   UNL     1     -44.823  -2.408 -31.461  0.00  0.00    +0.000 A 
ATOM     30  C   UNL     1     -43.924  -1.432 -31.895  0.00  0.00    +0.000 A 
ATOM     31  C   UNL     1     -44.342  -0.006 -31.942  0.00  0.00    +0.000 C 
ATOM     32  C   UNL     1     -42.632  -1.793 -32.279  0.00  0.00    +0.000 A 
ATOM     33  C   UNL     1     -42.246  -3.135 -32.248  0.00  0.00    +0.000 A 
BRANCH  27  35
ATOM     34  C   UNL     1     -42.107  -6.118 -30.769  0.00  0.00    +0.000 C 
ATOM     35  O   UNL     1     -42.779  -5.479 -31.846  0.00  0.00    +0.000 OA
ENDBRANCH  27  35
ENDBRANCH  23  28
ENDBRANCH  22  24
ENDBRANCH   1  22
TORSDOF 7
ENDMDL
