MODEL 1
REMARK VINA RESULT:      -6.2      0.000      0.000
REMARK  Name = ZINC000003831423 ZINC03831423 PubChem-7048776
REMARK  9 active torsions:
REMARK  status: ('A' for Active; 'I' for Inactive)
REMARK    1  A    between atoms: N_9  and  C_20
REMARK    2  A    between atoms: C_20  and  C_21
REMARK    3  A    between atoms: C_21  and  O_22
REMARK    4  A    between atoms: C_21  and  C_24
REMARK    5  A    between atoms: C_24  and  O_25
REMARK    6  A    between atoms: C_24  and  C_27
REMARK    7  A    between atoms: C_27  and  O_28
REMARK    8  A    between atoms: C_27  and  C_30
REMARK    9  A    between atoms: C_30  and  O_31
REMARK                            x       y       z     vdW  Elec       q    Type
REMARK                         _______ _______ _______ _____ _____    ______ ____
ROOT
ATOM      1  C   UNL     1     -47.030  -3.789 -23.675  0.00  0.00    +0.000 C 
ATOM      2  C   UNL     1     -47.048  -4.264 -25.088  0.00  0.00    +0.000 A 
ATOM      3  C   UNL     1     -46.792  -5.612 -25.347  0.00  0.00    +0.000 A 
ATOM      4  C   UNL     1     -46.799  -6.101 -26.655  0.00  0.00    +0.000 A 
ATOM      5  C   UNL     1     -47.071  -5.225 -27.740  0.00  0.00    +0.000 A 
ATOM      6  C   UNL     1     -47.325  -3.870 -27.466  0.00  0.00    +0.000 A 
ATOM      7  C   UNL     1     -47.316  -3.388 -26.155  0.00  0.00    +0.000 A 
ATOM      8  C   UNL     1     -47.595  -1.941 -25.924  0.00  0.00    +0.000 C 
ATOM      9  N   UNL     1     -47.082  -5.702 -29.030  0.00  0.00    +0.000 N 
ATOM     10  C   UNL     1     -46.825  -7.021 -29.268  0.00  0.00    +0.000 A 
ATOM     11  N   UNL     1     -46.819  -7.537 -30.525  0.00  0.00    +0.000 NA
ATOM     12  C   UNL     1     -46.562  -8.855 -30.740  0.00  0.00    +0.000 A 
ATOM     13  O   UNL     1     -46.563  -9.307 -31.914  0.00  0.00    +0.000 OA
ATOM     14  N   UNL     1     -46.305  -9.692 -29.697  0.00  0.00    +0.000 N 
ATOM     15  C   UNL     1     -46.290  -9.259 -28.408  0.00  0.00    +0.000 A 
ATOM     16  O   UNL     1     -46.046 -10.070 -27.477  0.00  0.00    +0.000 OA
ATOM     17  C   UNL     1     -46.546  -7.916 -28.134  0.00  0.00    +0.000 A 
ATOM     18  N   UNL     1     -46.546  -7.415 -26.876  0.00  0.00    +0.000 NA
ATOM     19  H   UNL     1     -46.122 -10.642 -29.881  0.00  0.00    +0.000 HD
ENDROOT
BRANCH   9  20
ATOM     20  C   UNL     1     -47.376  -4.812 -30.158  0.00  0.00    +0.000 C 
BRANCH  20  21
ATOM     21  C   UNL     1     -46.102  -4.147 -30.661  0.00  0.00    +0.000 C 
BRANCH  21  22
ATOM     22  O   UNL     1     -46.257  -2.758 -30.683  0.00  0.00    +0.000 OA
ATOM     23  H   UNL     1     -46.852  -2.487 -29.966  0.00  0.00    +0.000 HD
ENDBRANCH  21  22
BRANCH  21  24
ATOM     24  C   UNL     1     -45.745  -4.672 -32.051  0.00  0.00    +0.000 C 
BRANCH  24  25
ATOM     25  O   UNL     1     -44.862  -5.751 -31.946  0.00  0.00    +0.000 OA
ATOM     26  H   UNL     1     -44.528  -5.809 -31.037  0.00  0.00    +0.000 HD
ENDBRANCH  24  25
BRANCH  24  27
ATOM     27  C   UNL     1     -46.994  -5.086 -32.823  0.00  0.00    +0.000 C 
BRANCH  27  28
ATOM     28  O   UNL     1     -46.877  -6.413 -33.242  0.00  0.00    +0.000 OA
ATOM     29  H   UNL     1     -47.699  -6.688 -33.677  0.00  0.00    +0.000 HD
ENDBRANCH  27  28
BRANCH  27  30
ATOM     30  C   UNL     1     -47.185  -4.193 -34.041  0.00  0.00    +0.000 C 
BRANCH  30  31
ATOM     31  O   UNL     1     -47.414  -2.879 -33.634  0.00  0.00    +0.000 OA
ATOM     32  H   UNL     1     -48.357  -2.670 -33.733  0.00  0.00    +0.000 HD
ENDBRANCH  30  31
ENDBRANCH  27  30
ENDBRANCH  24  27
ENDBRANCH  21  24
ENDBRANCH  20  21
ENDBRANCH   9  20
TORSDOF 9
ENDMDL
MODEL 2
REMARK VINA RESULT:      -6.1     12.506     16.305
REMARK  Name = ZINC000003831423 ZINC03831423 PubChem-7048776
REMARK  9 active torsions:
REMARK  status: ('A' for Active; 'I' for Inactive)
REMARK    1  A    between atoms: N_9  and  C_20
REMARK    2  A    between atoms: C_20  and  C_21
REMARK    3  A    between atoms: C_21  and  O_22
REMARK    4  A    between atoms: C_21  and  C_24
REMARK    5  A    between atoms: C_24  and  O_25
REMARK    6  A    between atoms: C_24  and  C_27
REMARK    7  A    between atoms: C_27  and  O_28
REMARK    8  A    between atoms: C_27  and  C_30
REMARK    9  A    between atoms: C_30  and  O_31
REMARK                            x       y       z     vdW  Elec       q    Type
REMARK                         _______ _______ _______ _____ _____    ______ ____
ROOT
ATOM      1  C   UNL     1     -47.475 -13.395 -20.214  0.00  0.00    +0.000 C 
ATOM      2  C   UNL     1     -46.796 -14.720 -20.285  0.00  0.00    +0.000 A 
ATOM      3  C   UNL     1     -46.178 -15.095 -21.481  0.00  0.00    +0.000 A 
ATOM      4  C   UNL     1     -45.530 -16.327 -21.592  0.00  0.00    +0.000 A 
ATOM      5  C   UNL     1     -45.493 -17.214 -20.482  0.00  0.00    +0.000 A 
ATOM      6  C   UNL     1     -46.121 -16.826 -19.287  0.00  0.00    +0.000 A 
ATOM      7  C   UNL     1     -46.768 -15.592 -19.182  0.00  0.00    +0.000 A 
ATOM      8  C   UNL     1     -47.415 -15.232 -17.887  0.00  0.00    +0.000 C 
ATOM      9  N   UNL     1     -44.854 -18.427 -20.587  0.00  0.00    +0.000 N 
ATOM     10  C   UNL     1     -44.257 -18.781 -21.762  0.00  0.00    +0.000 A 
ATOM     11  N   UNL     1     -43.620 -19.972 -21.915  0.00  0.00    +0.000 NA
ATOM     12  C   UNL     1     -43.030 -20.304 -23.095  0.00  0.00    +0.000 A 
ATOM     13  O   UNL     1     -42.446 -21.413 -23.208  0.00  0.00    +0.000 OA
ATOM     14  N   UNL     1     -43.066 -19.450 -24.155  0.00  0.00    +0.000 N 
ATOM     15  C   UNL     1     -43.684 -18.240 -24.088  0.00  0.00    +0.000 A 
ATOM     16  O   UNL     1     -43.691 -17.484 -25.096  0.00  0.00    +0.000 OA
ATOM     17  C   UNL     1     -44.304 -17.852 -22.902  0.00  0.00    +0.000 A 
ATOM     18  N   UNL     1     -44.939 -16.664 -22.766  0.00  0.00    +0.000 NA
ATOM     19  H   UNL     1     -42.631 -19.716 -24.997  0.00  0.00    +0.000 HD
ENDROOT
BRANCH   9  20
ATOM     20  C   UNL     1     -44.795 -19.346 -19.445  0.00  0.00    +0.000 C 
BRANCH  20  21
ATOM     21  C   UNL     1     -43.519 -19.126 -18.645  0.00  0.00    +0.000 C 
BRANCH  21  22
ATOM     22  O   UNL     1     -42.567 -18.462 -19.425  0.00  0.00    +0.000 OA
ATOM     23  H   UNL     1     -41.908 -19.100 -19.744  0.00  0.00    +0.000 HD
ENDBRANCH  21  22
BRANCH  21  24
ATOM     24  C   UNL     1     -42.970 -20.461 -18.145  0.00  0.00    +0.000 C 
BRANCH  24  25
ATOM     25  O   UNL     1     -43.929 -21.466 -18.304  0.00  0.00    +0.000 OA
ATOM     26  H   UNL     1     -43.503 -22.271 -18.636  0.00  0.00    +0.000 HD
ENDBRANCH  24  25
BRANCH  24  27
ATOM     27  C   UNL     1     -41.685 -20.838 -18.876  0.00  0.00    +0.000 C 
BRANCH  27  28
ATOM     28  O   UNL     1     -41.989 -21.567 -20.028  0.00  0.00    +0.000 OA
ATOM     29  H   UNL     1     -41.174 -21.938 -20.400  0.00  0.00    +0.000 HD
ENDBRANCH  27  28
BRANCH  27  30
ATOM     30  C   UNL     1     -40.790 -21.677 -17.976  0.00  0.00    +0.000 C 
BRANCH  30  31
ATOM     31  O   UNL     1     -41.394 -21.846 -16.731  0.00  0.00    +0.000 OA
ATOM     32  H   UNL     1     -40.712 -22.015 -16.061  0.00  0.00    +0.000 HD
ENDBRANCH  30  31
ENDBRANCH  27  30
ENDBRANCH  24  27
ENDBRANCH  21  24
ENDBRANCH  20  21
ENDBRANCH   9  20
TORSDOF 9
ENDMDL
MODEL 3
REMARK VINA RESULT:      -5.8      2.253      5.276
REMARK  Name = ZINC000003831423 ZINC03831423 PubChem-7048776
REMARK  9 active torsions:
REMARK  status: ('A' for Active; 'I' for Inactive)
REMARK    1  A    between atoms: N_9  and  C_20
REMARK    2  A    between atoms: C_20  and  C_21
REMARK    3  A    between atoms: C_21  and  O_22
REMARK    4  A    between atoms: C_21  and  C_24
REMARK    5  A    between atoms: C_24  and  O_25
REMARK    6  A    between atoms: C_24  and  C_27
REMARK    7  A    between atoms: C_27  and  O_28
REMARK    8  A    between atoms: C_27  and  C_30
REMARK    9  A    between atoms: C_30  and  O_31
REMARK                            x       y       z     vdW  Elec       q    Type
REMARK                         _______ _______ _______ _____ _____    ______ ____
ROOT
ATOM      1  C   UNL     1     -45.755 -11.002 -32.006  0.00  0.00    +0.000 C 
ATOM      2  C   UNL     1     -46.111  -9.608 -31.618  0.00  0.00    +0.000 A 
ATOM      3  C   UNL     1     -46.060  -9.254 -30.268  0.00  0.00    +0.000 A 
ATOM      4  C   UNL     1     -46.385  -7.958 -29.858  0.00  0.00    +0.000 A 
ATOM      5  C   UNL     1     -46.771  -6.984 -30.819  0.00  0.00    +0.000 A 
ATOM      6  C   UNL     1     -46.819  -7.355 -32.173  0.00  0.00    +0.000 A 
ATOM      7  C   UNL     1     -46.494  -8.653 -32.576  0.00  0.00    +0.000 A 
ATOM      8  C   UNL     1     -46.561  -8.988 -34.028  0.00  0.00    +0.000 C 
ATOM      9  N   UNL     1     -47.089  -5.707 -30.420  0.00  0.00    +0.000 N 
ATOM     10  C   UNL     1     -47.039  -5.376 -29.097  0.00  0.00    +0.000 A 
ATOM     11  N   UNL     1     -47.350  -4.129 -28.655  0.00  0.00    +0.000 NA
ATOM     12  C   UNL     1     -47.292  -3.821 -27.332  0.00  0.00    +0.000 A 
ATOM     13  O   UNL     1     -47.585  -2.658 -26.950  0.00  0.00    +0.000 OA
ATOM     14  N   UNL     1     -46.920  -4.757 -26.415  0.00  0.00    +0.000 N 
ATOM     15  C   UNL     1     -46.593  -6.027 -26.771  0.00  0.00    +0.000 A 
ATOM     16  O   UNL     1     -46.256  -6.859 -25.887  0.00  0.00    +0.000 OA
ATOM     17  C   UNL     1     -46.637  -6.396 -28.114  0.00  0.00    +0.000 A 
ATOM     18  N   UNL     1     -46.327  -7.643 -28.540  0.00  0.00    +0.000 NA
ATOM     19  H   UNL     1     -46.886  -4.506 -25.464  0.00  0.00    +0.000 HD
ENDROOT
BRANCH   9  20
ATOM     20  C   UNL     1     -47.474  -4.688 -31.402  0.00  0.00    +0.000 C 
BRANCH  20  21
ATOM     21  C   UNL     1     -46.331  -3.711 -31.636  0.00  0.00    +0.000 C 
BRANCH  21  22
ATOM     22  O   UNL     1     -46.697  -2.428 -31.216  0.00  0.00    +0.000 OA
ATOM     23  H   UNL     1     -46.727  -1.834 -31.983  0.00  0.00    +0.000 HD
ENDBRANCH  21  22
BRANCH  21  24
ATOM     24  C   UNL     1     -45.934  -3.703 -33.111  0.00  0.00    +0.000 C 
BRANCH  24  25
ATOM     25  O   UNL     1     -46.761  -2.832 -33.828  0.00  0.00    +0.000 OA
ATOM     26  H   UNL     1     -47.216  -3.323 -34.530  0.00  0.00    +0.000 HD
ENDBRANCH  24  25
BRANCH  24  27
ATOM     27  C   UNL     1     -44.471  -3.304 -33.286  0.00  0.00    +0.000 C 
BRANCH  27  28
ATOM     28  O   UNL     1     -43.803  -3.399 -32.064  0.00  0.00    +0.000 OA
ATOM     29  H   UNL     1     -44.395  -3.116 -31.349  0.00  0.00    +0.000 HD
ENDBRANCH  27  28
BRANCH  27  30
ATOM     30  C   UNL     1     -44.369  -1.877 -33.802  0.00  0.00    +0.000 C 
BRANCH  30  31
ATOM     31  O   UNL     1     -44.499  -0.979 -32.743  0.00  0.00    +0.000 OA
ATOM     32  H   UNL     1     -44.583  -0.078 -33.092  0.00  0.00    +0.000 HD
ENDBRANCH  30  31
ENDBRANCH  27  30
ENDBRANCH  24  27
ENDBRANCH  21  24
ENDBRANCH  20  21
ENDBRANCH   9  20
TORSDOF 9
ENDMDL
