MODEL 1
REMARK VINA RESULT:      -6.6      0.000      0.000
REMARK  Name = ZINC000032740599 ZINC32740599 CSC026941728 MCULE-1168912559 MolPort-005-697-480 PubChem-39966225
REMARK  4 active torsions:
REMARK  status: ('A' for Active; 'I' for Inactive)
REMARK    1  A    between atoms: N_1  and  C_22
REMARK    2  A    between atoms: C_2  and  C_5
REMARK    3  A    between atoms: C_17  and  S_24
REMARK    4  A    between atoms: S_24  and  N_28
REMARK                            x       y       z     vdW  Elec       q    Type
REMARK                         _______ _______ _______ _____ _____    ______ ____
ROOT
ATOM      1  N   UNL     1     -44.134 -18.603 -26.244  0.00  0.00    +0.000 N 
ATOM      2  C   UNL     1     -44.864 -19.347 -25.256  0.00  0.00    +0.000 C 
ATOM      3  O   UNL     1     -45.695 -20.210 -25.644  0.00  0.00    +0.000 OA
ATOM      4  H   UNL     1     -43.888 -19.079 -27.071  0.00  0.00    +0.000 HD
ENDROOT
BRANCH   2   5
ATOM      5  C   UNL     1     -44.631 -19.167 -23.808  0.00  0.00    +0.000 A 
ATOM      6  C   UNL     1     -45.410 -18.266 -23.063  0.00  0.00    +0.000 A 
ATOM      7  C   UNL     1     -45.180 -18.087 -21.696  0.00  0.00    +0.000 A 
ATOM      8  C   UNL     1     -44.162 -18.804 -21.064  0.00  0.00    +0.000 A 
ATOM      9  N   UNL     1     -43.926 -18.646 -19.737  0.00  0.00    +0.000 NA
ATOM     10  C   UNL     1     -42.935 -19.336 -19.109  0.00  0.00    +0.000 A 
ATOM     11  C   UNL     1     -42.718 -19.124 -17.649  0.00  0.00    +0.000 C 
ATOM     12  C   UNL     1     -42.140 -20.229 -19.850  0.00  0.00    +0.000 A 
ATOM     13  C   UNL     1     -41.039 -21.008 -19.212  0.00  0.00    +0.000 C 
ATOM     14  N   UNL     1     -42.376 -20.387 -21.181  0.00  0.00    +0.000 NA
ATOM     15  C   UNL     1     -43.367 -19.699 -21.806  0.00  0.00    +0.000 A 
ATOM     16  C   UNL     1     -43.600 -19.874 -23.172  0.00  0.00    +0.000 A 
ENDBRANCH   2   5
BRANCH   1  22
ATOM     17  C   UNL     1     -44.218 -14.858 -26.376  0.00  0.00    +0.000 A 
ATOM     18  C   UNL     1     -42.914 -14.549 -25.982  0.00  0.00    +0.000 A 
ATOM     19  C   UNL     1     -42.016 -15.573 -25.672  0.00  0.00    +0.000 A 
ATOM     20  C   UNL     1     -42.416 -16.911 -25.750  0.00  0.00    +0.000 A 
ATOM     21  C   UNL     1     -41.431 -17.978 -25.415  0.00  0.00    +0.000 C 
ATOM     22  C   UNL     1     -43.731 -17.230 -26.135  0.00  0.00    +0.000 A 
ATOM     23  C   UNL     1     -44.619 -16.194 -26.462  0.00  0.00    +0.000 A 
BRANCH  17  24
ATOM     24  S   UNL     1     -45.349 -13.575 -26.772  0.00  0.00    +0.000 S 
ATOM     25  O   UNL     1     -46.439 -13.530 -25.736  0.00  0.00    +0.000 OA
ATOM     26  O   UNL     1     -44.619 -12.260 -26.761  0.00  0.00    +0.000 OA
BRANCH  24  28
ATOM     27  C   UNL     1     -46.971 -12.786 -28.620  0.00  0.00    +0.000 C 
ATOM     28  N   UNL     1     -46.025 -13.854 -28.346  0.00  0.00    +0.000 NA
ATOM     29  C   UNL     1     -44.952 -13.720 -29.318  0.00  0.00    +0.000 C 
ENDBRANCH  24  28
ENDBRANCH  17  24
ENDBRANCH   1  22
TORSDOF 4
ENDMDL
MODEL 2
REMARK VINA RESULT:      -6.4      3.416      7.597
REMARK  Name = ZINC000032740599 ZINC32740599 CSC026941728 MCULE-1168912559 MolPort-005-697-480 PubChem-39966225
REMARK  4 active torsions:
REMARK  status: ('A' for Active; 'I' for Inactive)
REMARK    1  A    between atoms: N_1  and  C_22
REMARK    2  A    between atoms: C_2  and  C_5
REMARK    3  A    between atoms: C_17  and  S_24
REMARK    4  A    between atoms: S_24  and  N_28
REMARK                            x       y       z     vdW  Elec       q    Type
REMARK                         _______ _______ _______ _____ _____    ______ ____
ROOT
ATOM      1  N   UNL     1     -44.990 -16.067 -21.519  0.00  0.00    +0.000 N 
ATOM      2  C   UNL     1     -45.592 -16.041 -22.822  0.00  0.00    +0.000 C 
ATOM      3  O   UNL     1     -46.451 -15.154 -23.070  0.00  0.00    +0.000 OA
ATOM      4  H   UNL     1     -44.833 -15.199 -21.081  0.00  0.00    +0.000 HD
ENDROOT
BRANCH   2   5
ATOM      5  C   UNL     1     -45.199 -16.986 -23.888  0.00  0.00    +0.000 A 
ATOM      6  C   UNL     1     -45.907 -18.183 -24.082  0.00  0.00    +0.000 A 
ATOM      7  C   UNL     1     -45.525 -19.081 -25.083  0.00  0.00    +0.000 A 
ATOM      8  C   UNL     1     -44.425 -18.792 -25.892  0.00  0.00    +0.000 A 
ATOM      9  N   UNL     1     -44.041 -19.651 -26.870  0.00  0.00    +0.000 NA
ATOM     10  C   UNL     1     -42.969 -19.384 -27.664  0.00  0.00    +0.000 A 
ATOM     11  C   UNL     1     -42.590 -20.362 -28.724  0.00  0.00    +0.000 C 
ATOM     12  C   UNL     1     -42.244 -18.195 -27.466  0.00  0.00    +0.000 A 
ATOM     13  C   UNL     1     -41.060 -17.853 -28.306  0.00  0.00    +0.000 C 
ATOM     14  N   UNL     1     -42.628 -17.334 -26.485  0.00  0.00    +0.000 NA
ATOM     15  C   UNL     1     -43.700 -17.601 -25.694  0.00  0.00    +0.000 A 
ATOM     16  C   UNL     1     -44.085 -16.706 -24.694  0.00  0.00    +0.000 A 
ENDBRANCH   2   5
BRANCH   1  22
ATOM     17  C   UNL     1     -43.117 -19.158 -20.521  0.00  0.00    +0.000 A 
ATOM     18  C   UNL     1     -43.868 -19.580 -19.421  0.00  0.00    +0.000 A 
ATOM     19  C   UNL     1     -44.983 -18.845 -19.012  0.00  0.00    +0.000 A 
ATOM     20  C   UNL     1     -45.352 -17.682 -19.697  0.00  0.00    +0.000 A 
ATOM     21  C   UNL     1     -46.549 -16.924 -19.234  0.00  0.00    +0.000 C 
ATOM     22  C   UNL     1     -44.595 -17.244 -20.798  0.00  0.00    +0.000 A 
ATOM     23  C   UNL     1     -43.488 -18.000 -21.211  0.00  0.00    +0.000 A 
BRANCH  17  24
ATOM     24  S   UNL     1     -41.719 -20.082 -21.043  0.00  0.00    +0.000 S 
ATOM     25  O   UNL     1     -40.789 -19.188 -21.819  0.00  0.00    +0.000 OA
ATOM     26  O   UNL     1     -40.992 -20.595 -19.830  0.00  0.00    +0.000 OA
BRANCH  24  28
ATOM     27  C   UNL     1     -42.627 -20.890 -23.321  0.00  0.00    +0.000 C 
ATOM     28  N   UNL     1     -42.231 -21.417 -22.026  0.00  0.00    +0.000 NA
ATOM     29  C   UNL     1     -41.073 -22.264 -22.257  0.00  0.00    +0.000 C 
ENDBRANCH  24  28
ENDBRANCH  17  24
ENDBRANCH   1  22
TORSDOF 4
ENDMDL
MODEL 3
REMARK VINA RESULT:      -6.3      1.778      2.596
REMARK  Name = ZINC000032740599 ZINC32740599 CSC026941728 MCULE-1168912559 MolPort-005-697-480 PubChem-39966225
REMARK  4 active torsions:
REMARK  status: ('A' for Active; 'I' for Inactive)
REMARK    1  A    between atoms: N_1  and  C_22
REMARK    2  A    between atoms: C_2  and  C_5
REMARK    3  A    between atoms: C_17  and  S_24
REMARK    4  A    between atoms: S_24  and  N_28
REMARK                            x       y       z     vdW  Elec       q    Type
REMARK                         _______ _______ _______ _____ _____    ______ ____
ROOT
ATOM      1  N   UNL     1     -43.547 -17.773 -26.925  0.00  0.00    +0.000 N 
ATOM      2  C   UNL     1     -44.118 -18.902 -26.246  0.00  0.00    +0.000 C 
ATOM      3  O   UNL     1     -44.758 -19.750 -26.922  0.00  0.00    +0.000 OA
ATOM      4  H   UNL     1     -43.206 -17.924 -27.837  0.00  0.00    +0.000 HD
ENDROOT
BRANCH   2   5
ATOM      5  C   UNL     1     -43.935 -19.121 -24.796  0.00  0.00    +0.000 A 
ATOM      6  C   UNL     1     -42.835 -19.848 -24.314  0.00  0.00    +0.000 A 
ATOM      7  C   UNL     1     -42.670 -20.065 -22.943  0.00  0.00    +0.000 A 
ATOM      8  C   UNL     1     -43.612 -19.562 -22.043  0.00  0.00    +0.000 A 
ATOM      9  N   UNL     1     -43.468 -19.761 -20.708  0.00  0.00    +0.000 NA
ATOM     10  C   UNL     1     -44.380 -19.280 -19.821  0.00  0.00    +0.000 A 
ATOM     11  C   UNL     1     -44.173 -19.527 -18.364  0.00  0.00    +0.000 C 
ATOM     12  C   UNL     1     -45.494 -18.565 -20.296  0.00  0.00    +0.000 A 
ATOM     13  C   UNL     1     -46.524 -18.017 -19.366  0.00  0.00    +0.000 C 
ATOM     14  N   UNL     1     -45.638 -18.366 -21.634  0.00  0.00    +0.000 NA
ATOM     15  C   UNL     1     -44.726 -18.845 -22.519  0.00  0.00    +0.000 A 
ATOM     16  C   UNL     1     -44.887 -18.631 -23.890  0.00  0.00    +0.000 A 
ENDBRANCH   2   5
BRANCH   1  22
ATOM     17  C   UNL     1     -44.430 -14.306 -25.803  0.00  0.00    +0.000 A 
ATOM     18  C   UNL     1     -43.177 -13.825 -25.418  0.00  0.00    +0.000 A 
ATOM     19  C   UNL     1     -42.049 -14.643 -25.526  0.00  0.00    +0.000 A 
ATOM     20  C   UNL     1     -42.168 -15.948 -26.016  0.00  0.00    +0.000 A 
ATOM     21  C   UNL     1     -40.945 -16.792 -26.119  0.00  0.00    +0.000 C 
ATOM     22  C   UNL     1     -43.428 -16.444 -26.395  0.00  0.00    +0.000 A 
ATOM     23  C   UNL     1     -44.550 -15.607 -26.300  0.00  0.00    +0.000 A 
BRANCH  17  24
ATOM     24  S   UNL     1     -45.848 -13.279 -25.676  0.00  0.00    +0.000 S 
ATOM     25  O   UNL     1     -46.775 -13.561 -26.829  0.00  0.00    +0.000 OA
ATOM     26  O   UNL     1     -46.565 -13.594 -24.392  0.00  0.00    +0.000 OA
BRANCH  24  28
ATOM     27  C   UNL     1     -46.354 -10.868 -26.449  0.00  0.00    +0.000 C 
ATOM     28  N   UNL     1     -45.368 -11.612 -25.683  0.00  0.00    +0.000 NA
ATOM     29  C   UNL     1     -45.447 -11.124 -24.316  0.00  0.00    +0.000 C 
ENDBRANCH  24  28
ENDBRANCH  17  24
ENDBRANCH   1  22
TORSDOF 4
ENDMDL
