MODEL 1
REMARK VINA RESULT:      -6.8      0.000      0.000
REMARK  Name = ZINC000031807936
REMARK  2 active torsions:
REMARK  status: ('A' for Active; 'I' for Inactive)
REMARK    1  A    between atoms: C_1  and  C_27
REMARK    2  A    between atoms: C_24  and  O_31
REMARK                            x       y       z     vdW  Elec       q    Type
REMARK                         _______ _______ _______ _____ _____    ______ ____
ROOT
ATOM      1  C   UNL     1     -45.091  -3.995 -33.515  0.00  0.00    +0.000 C 
ATOM      2  S   UNL     1     -46.824  -3.546 -33.184  0.00  0.00    +0.000 S 
ATOM      3  C   UNL     1     -46.540  -3.370 -31.407  0.00  0.00    +0.000 C 
ATOM      4  C   UNL     1     -46.843  -4.649 -30.722  0.00  0.00    +0.000 C 
ATOM      5  O   UNL     1     -47.756  -4.664 -29.858  0.00  0.00    +0.000 OA
ATOM      6  N   UNL     1     -46.117  -5.854 -30.980  0.00  0.00    +0.000 N 
ATOM      7  C   UNL     1     -45.122  -6.147 -31.975  0.00  0.00    +0.000 A 
ATOM      8  C   UNL     1     -44.676  -5.358 -33.035  0.00  0.00    +0.000 A 
ATOM      9  C   UNL     1     -43.669  -6.116 -33.611  0.00  0.00    +0.000 A 
ATOM     10  C   UNL     1     -42.840  -5.728 -34.786  0.00  0.00    +0.000 C 
ATOM     11  N   UNL     1     -43.520  -7.278 -32.951  0.00  0.00    +0.000 NA
ATOM     12  N   UNL     1     -44.413  -7.300 -31.975  0.00  0.00    +0.000 N 
ATOM     13  H   UNL     1     -46.335  -6.603 -30.380  0.00  0.00    +0.000 HD
ATOM     14  C   UNL     1     -44.514  -8.390 -31.046  0.00  0.00    +0.000 A 
ATOM     15  N   UNL     1     -43.384  -9.002 -30.581  0.00  0.00    +0.000 NA
ATOM     16  C   UNL     1     -43.447 -10.064 -29.717  0.00  0.00    +0.000 A 
ATOM     17  N   UNL     1     -44.656 -10.553 -29.307  0.00  0.00    +0.000 NA
ATOM     18  C   UNL     1     -45.777  -9.958 -29.779  0.00  0.00    +0.000 A 
ATOM     19  N   UNL     1     -47.040 -10.331 -29.538  0.00  0.00    +0.000 N 
ATOM     20  C   UNL     1     -47.753  -9.452 -30.293  0.00  0.00    +0.000 A 
ATOM     21  N   UNL     1     -46.985  -8.568 -30.986  0.00  0.00    +0.000 NA
ATOM     22  C   UNL     1     -45.739  -8.909 -30.627  0.00  0.00    +0.000 A 
ATOM     23  H   UNL     1     -47.368 -11.057 -28.960  0.00  0.00    +0.000 HD
ENDROOT
BRANCH   1  27
ATOM     24  C   UNL     1     -42.319  -0.819 -32.604  0.00  0.00    +0.000 A 
ATOM     25  C   UNL     1     -42.042  -2.123 -32.185  0.00  0.00    +0.000 A 
ATOM     26  C   UNL     1     -42.932  -3.162 -32.477  0.00  0.00    +0.000 A 
ATOM     27  C   UNL     1     -44.108  -2.903 -33.197  0.00  0.00    +0.000 A 
ATOM     28  C   UNL     1     -44.388  -1.598 -33.611  0.00  0.00    +0.000 A 
ATOM     29  C   UNL     1     -43.499  -0.559 -33.319  0.00  0.00    +0.000 A 
BRANCH  24  31
ATOM     30  C   UNL     1     -40.283  -0.009 -31.457  0.00  0.00    +0.000 C 
ATOM     31  O   UNL     1     -41.410   0.197 -32.297  0.00  0.00    +0.000 OA
ENDBRANCH  24  31
ENDBRANCH   1  27
TORSDOF 2
ENDMDL
MODEL 2
REMARK VINA RESULT:      -6.8      2.631      3.107
REMARK  Name = ZINC000031807936
REMARK  2 active torsions:
REMARK  status: ('A' for Active; 'I' for Inactive)
REMARK    1  A    between atoms: C_1  and  C_27
REMARK    2  A    between atoms: C_24  and  O_31
REMARK                            x       y       z     vdW  Elec       q    Type
REMARK                         _______ _______ _______ _____ _____    ______ ____
ROOT
ATOM      1  C   UNL     1     -45.985  -4.568 -31.605  0.00  0.00    +0.000 C 
ATOM      2  S   UNL     1     -45.936  -4.932 -29.821  0.00  0.00    +0.000 S 
ATOM      3  C   UNL     1     -44.234  -5.537 -29.894  0.00  0.00    +0.000 C 
ATOM      4  C   UNL     1     -44.233  -7.006 -30.094  0.00  0.00    +0.000 C 
ATOM      5  O   UNL     1     -43.705  -7.730 -29.212  0.00  0.00    +0.000 OA
ATOM      6  N   UNL     1     -44.775  -7.626 -31.263  0.00  0.00    +0.000 N 
ATOM      7  C   UNL     1     -45.525  -7.064 -32.354  0.00  0.00    +0.000 A 
ATOM      8  C   UNL     1     -46.022  -5.770 -32.507  0.00  0.00    +0.000 A 
ATOM      9  C   UNL     1     -46.591  -5.782 -33.770  0.00  0.00    +0.000 A 
ATOM     10  C   UNL     1     -47.259  -4.634 -34.443  0.00  0.00    +0.000 C 
ATOM     11  N   UNL     1     -46.452  -6.994 -34.336  0.00  0.00    +0.000 NA
ATOM     12  N   UNL     1     -45.823  -7.770 -33.469  0.00  0.00    +0.000 N 
ATOM     13  H   UNL     1     -44.610  -8.594 -31.331  0.00  0.00    +0.000 HD
ATOM     14  C   UNL     1     -45.481  -9.133 -33.760  0.00  0.00    +0.000 A 
ATOM     15  N   UNL     1     -45.046  -9.479 -35.009  0.00  0.00    +0.000 NA
ATOM     16  C   UNL     1     -44.739 -10.776 -35.328  0.00  0.00    +0.000 A 
ATOM     17  N   UNL     1     -44.877 -11.770 -34.399  0.00  0.00    +0.000 NA
ATOM     18  C   UNL     1     -45.322 -11.431 -33.166  0.00  0.00    +0.000 A 
ATOM     19  N   UNL     1     -45.575 -12.268 -32.151  0.00  0.00    +0.000 N 
ATOM     20  C   UNL     1     -46.053 -11.429 -31.192  0.00  0.00    +0.000 A 
ATOM     21  N   UNL     1     -46.108 -10.125 -31.578  0.00  0.00    +0.000 NA
ATOM     22  C   UNL     1     -45.628 -10.161 -32.828  0.00  0.00    +0.000 A 
ATOM     23  H   UNL     1     -45.446 -13.243 -32.110  0.00  0.00    +0.000 HD
ENDROOT
BRANCH   1  27
ATOM     24  C   UNL     1     -43.215  -1.480 -32.784  0.00  0.00    +0.000 A 
ATOM     25  C   UNL     1     -43.060  -2.778 -33.279  0.00  0.00    +0.000 A 
ATOM     26  C   UNL     1     -43.953  -3.787 -32.906  0.00  0.00    +0.000 A 
ATOM     27  C   UNL     1     -45.015  -3.503 -32.035  0.00  0.00    +0.000 A 
ATOM     28  C   UNL     1     -45.168  -2.206 -31.535  0.00  0.00    +0.000 A 
ATOM     29  C   UNL     1     -44.274  -1.198 -31.907  0.00  0.00    +0.000 A 
BRANCH  24  31
ATOM     30  C   UNL     1     -41.135  -0.189 -32.429  0.00  0.00    +0.000 C 
ATOM     31  O   UNL     1     -42.305  -0.494 -33.176  0.00  0.00    +0.000 OA
ENDBRANCH  24  31
ENDBRANCH   1  27
TORSDOF 2
ENDMDL
MODEL 3
REMARK VINA RESULT:      -6.6      9.573     13.616
REMARK  Name = ZINC000031807936
REMARK  2 active torsions:
REMARK  status: ('A' for Active; 'I' for Inactive)
REMARK    1  A    between atoms: C_1  and  C_27
REMARK    2  A    between atoms: C_24  and  O_31
REMARK                            x       y       z     vdW  Elec       q    Type
REMARK                         _______ _______ _______ _____ _____    ______ ____
ROOT
ATOM      1  C   UNL     1     -43.559 -15.710 -25.803  0.00  0.00    +0.000 C 
ATOM      2  S   UNL     1     -43.291 -17.462 -26.219  0.00  0.00    +0.000 S 
ATOM      3  C   UNL     1     -45.059 -17.840 -26.186  0.00  0.00    +0.000 C 
ATOM      4  C   UNL     1     -45.443 -18.321 -24.837  0.00  0.00    +0.000 C 
ATOM      5  O   UNL     1     -45.914 -19.482 -24.727  0.00  0.00    +0.000 OA
ATOM      6  N   UNL     1     -45.333 -17.506 -23.667  0.00  0.00    +0.000 N 
ATOM      7  C   UNL     1     -44.737 -16.211 -23.486  0.00  0.00    +0.000 A 
ATOM      8  C   UNL     1     -44.003 -15.444 -24.390  0.00  0.00    +0.000 A 
ATOM      9  C   UNL     1     -43.748 -14.271 -23.700  0.00  0.00    +0.000 A 
ATOM     10  C   UNL     1     -43.001 -13.091 -24.217  0.00  0.00    +0.000 C 
ATOM     11  N   UNL     1     -44.285 -14.325 -22.469  0.00  0.00    +0.000 NA
ATOM     12  N   UNL     1     -44.866 -15.506 -22.338  0.00  0.00    +0.000 N 
ATOM     13  H   UNL     1     -45.728 -17.896 -22.854  0.00  0.00    +0.000 HD
ATOM     14  C   UNL     1     -45.569 -15.893 -21.148  0.00  0.00    +0.000 A 
ATOM     15  N   UNL     1     -46.340 -14.982 -20.480  0.00  0.00    +0.000 NA
ATOM     16  C   UNL     1     -47.000 -15.311 -19.325  0.00  0.00    +0.000 A 
ATOM     17  N   UNL     1     -46.891 -16.568 -18.797  0.00  0.00    +0.000 NA
ATOM     18  C   UNL     1     -46.116 -17.467 -19.450  0.00  0.00    +0.000 A 
ATOM     19  N   UNL     1     -45.843 -18.718 -19.058  0.00  0.00    +0.000 N 
ATOM     20  C   UNL     1     -44.983 -19.145 -20.022  0.00  0.00    +0.000 A 
ATOM     21  N   UNL     1     -44.716 -18.213 -20.976  0.00  0.00    +0.000 NA
ATOM     22  C   UNL     1     -45.459 -17.167 -20.589  0.00  0.00    +0.000 A 
ATOM     23  H   UNL     1     -46.181 -19.204 -18.271  0.00  0.00    +0.000 HD
ENDROOT
BRANCH   1  27
ATOM     24  C   UNL     1     -45.738 -13.559 -28.840  0.00  0.00    +0.000 A 
ATOM     25  C   UNL     1     -46.249 -13.634 -27.541  0.00  0.00    +0.000 A 
ATOM     26  C   UNL     1     -45.550 -14.326 -26.547  0.00  0.00    +0.000 A 
ATOM     27  C   UNL     1     -44.328 -14.948 -26.845  0.00  0.00    +0.000 A 
ATOM     28  C   UNL     1     -43.820 -14.878 -28.146  0.00  0.00    +0.000 A 
ATOM     29  C   UNL     1     -44.519 -14.187 -29.139  0.00  0.00    +0.000 A 
BRANCH  24  31
ATOM     30  C   UNL     1     -46.626 -11.449 -29.777  0.00  0.00    +0.000 C 
ATOM     31  O   UNL     1     -46.461 -12.860 -29.811  0.00  0.00    +0.000 OA
ENDBRANCH  24  31
ENDBRANCH   1  27
TORSDOF 2
ENDMDL
