MODEL 1
REMARK VINA RESULT:      -7.3      0.000      0.000
REMARK  Name = ZINC000015841380 ZINC15841380 ChemDiv-D468-2065 MCULE-3603103277 MolPort-004-901-220 PubChem-20897503
REMARK  2 active torsions:
REMARK  status: ('A' for Active; 'I' for Inactive)
REMARK    1  A    between atoms: C_10  and  C_14
REMARK    2  A    between atoms: N_16  and  C_18
REMARK                            x       y       z     vdW  Elec       q    Type
REMARK                         _______ _______ _______ _____ _____    ______ ____
ROOT
ATOM      1  C   UNL     1     -45.506 -12.440 -23.856  0.00  0.00    +0.000 C 
ATOM      2  C   UNL     1     -45.534 -13.919 -24.044  0.00  0.00    +0.000 A 
ATOM      3  C   UNL     1     -45.890 -14.498 -25.277  0.00  0.00    +0.000 A 
ATOM      4  C   UNL     1     -46.256 -13.659 -26.454  0.00  0.00    +0.000 C 
ATOM      5  C   UNL     1     -45.903 -15.890 -25.415  0.00  0.00    +0.000 A 
ATOM      6  C   UNL     1     -45.564 -16.711 -24.332  0.00  0.00    +0.000 A 
ATOM      7  C   UNL     1     -45.567 -18.108 -24.434  0.00  0.00    +0.000 A 
ATOM      8  O   UNL     1     -45.881 -18.682 -25.511  0.00  0.00    +0.000 OA
ATOM      9  C   UNL     1     -45.214 -18.872 -23.323  0.00  0.00    +0.000 A 
ATOM     10  C   UNL     1     -44.864 -18.227 -22.130  0.00  0.00    +0.000 A 
ATOM     11  O   UNL     1     -44.883 -16.897 -22.062  0.00  0.00    +0.000 OA
ATOM     12  C   UNL     1     -45.208 -16.129 -23.098  0.00  0.00    +0.000 A 
ATOM     13  C   UNL     1     -45.196 -14.739 -22.961  0.00  0.00    +0.000 A 
ENDROOT
BRANCH  10  14
ATOM     14  C   UNL     1     -44.489 -19.019 -20.941  0.00  0.00    +0.000 C 
ATOM     15  O   UNL     1     -43.632 -19.936 -21.052  0.00  0.00    +0.000 OA
ATOM     16  N   UNL     1     -45.121 -18.818 -19.669  0.00  0.00    +0.000 N 
ATOM     17  H   UNL     1     -45.247 -19.614 -19.103  0.00  0.00    +0.000 HD
BRANCH  16  18
ATOM     18  C   UNL     1     -45.584 -17.568 -19.145  0.00  0.00    +0.000 A 
ATOM     19  C   UNL     1     -44.683 -16.597 -18.670  0.00  0.00    +0.000 A 
ATOM     20  C   UNL     1     -45.175 -15.403 -18.146  0.00  0.00    +0.000 A 
ATOM     21  N   UNL     1     -44.368 -14.417 -17.686  0.00  0.00    +0.000 NA
ATOM     22  S   UNL     1     -45.508 -13.311 -17.218  0.00  0.00    +0.000 S 
ATOM     23  N   UNL     1     -46.980 -13.989 -17.556  0.00  0.00    +0.000 NA
ATOM     24  C   UNL     1     -46.576 -15.175 -18.077  0.00  0.00    +0.000 A 
ATOM     25  C   UNL     1     -47.470 -16.144 -18.527  0.00  0.00    +0.000 A 
ATOM     26  C   UNL     1     -46.967 -17.342 -19.056  0.00  0.00    +0.000 A 
ENDBRANCH  16  18
ENDBRANCH  10  14
TORSDOF 2
ENDMDL
MODEL 2
REMARK VINA RESULT:      -6.9     12.761     15.896
REMARK  Name = ZINC000015841380 ZINC15841380 ChemDiv-D468-2065 MCULE-3603103277 MolPort-004-901-220 PubChem-20897503
REMARK  2 active torsions:
REMARK  status: ('A' for Active; 'I' for Inactive)
REMARK    1  A    between atoms: C_10  and  C_14
REMARK    2  A    between atoms: N_16  and  C_18
REMARK                            x       y       z     vdW  Elec       q    Type
REMARK                         _______ _______ _______ _____ _____    ______ ____
ROOT
ATOM      1  C   UNL     1     -44.374  -0.096 -31.963  0.00  0.00    +0.000 C 
ATOM      2  C   UNL     1     -43.903  -1.387 -32.542  0.00  0.00    +0.000 A 
ATOM      3  C   UNL     1     -42.577  -1.553 -32.987  0.00  0.00    +0.000 A 
ATOM      4  C   UNL     1     -41.581  -0.447 -32.900  0.00  0.00    +0.000 C 
ATOM      5  C   UNL     1     -42.173  -2.779 -33.524  0.00  0.00    +0.000 A 
ATOM      6  C   UNL     1     -43.079  -3.843 -33.622  0.00  0.00    +0.000 A 
ATOM      7  C   UNL     1     -42.710  -5.084 -34.155  0.00  0.00    +0.000 A 
ATOM      8  O   UNL     1     -41.539  -5.291 -34.573  0.00  0.00    +0.000 OA
ATOM      9  C   UNL     1     -43.654  -6.107 -34.220  0.00  0.00    +0.000 A 
ATOM     10  C   UNL     1     -44.954  -5.870 -33.750  0.00  0.00    +0.000 A 
ATOM     11  O   UNL     1     -45.277  -4.674 -33.261  0.00  0.00    +0.000 OA
ATOM     12  C   UNL     1     -44.407  -3.673 -33.176  0.00  0.00    +0.000 A 
ATOM     13  C   UNL     1     -44.809  -2.448 -32.640  0.00  0.00    +0.000 A 
ENDROOT
BRANCH  10  14
ATOM     14  C   UNL     1     -45.970  -6.940 -33.812  0.00  0.00    +0.000 C 
ATOM     15  O   UNL     1     -45.959  -7.751 -34.776  0.00  0.00    +0.000 OA
ATOM     16  N   UNL     1     -47.017  -7.045 -32.837  0.00  0.00    +0.000 N 
ATOM     17  H   UNL     1     -47.890  -7.370 -33.153  0.00  0.00    +0.000 HD
BRANCH  16  18
ATOM     18  C   UNL     1     -46.909  -6.722 -31.446  0.00  0.00    +0.000 A 
ATOM     19  C   UNL     1     -47.417  -5.513 -30.935  0.00  0.00    +0.000 A 
ATOM     20  C   UNL     1     -47.271  -5.227 -29.579  0.00  0.00    +0.000 A 
ATOM     21  N   UNL     1     -47.749  -4.091 -29.015  0.00  0.00    +0.000 NA
ATOM     22  S   UNL     1     -47.278  -4.334 -27.446  0.00  0.00    +0.000 S 
ATOM     23  N   UNL     1     -46.498  -5.793 -27.414  0.00  0.00    +0.000 NA
ATOM     24  C   UNL     1     -46.600  -6.140 -28.721  0.00  0.00    +0.000 A 
ATOM     25  C   UNL     1     -46.078  -7.328 -29.230  0.00  0.00    +0.000 A 
ATOM     26  C   UNL     1     -46.231  -7.611 -30.595  0.00  0.00    +0.000 A 
ENDBRANCH  16  18
ENDBRANCH  10  14
TORSDOF 2
ENDMDL
MODEL 3
REMARK VINA RESULT:      -6.8     16.499     19.047
REMARK  Name = ZINC000015841380 ZINC15841380 ChemDiv-D468-2065 MCULE-3603103277 MolPort-004-901-220 PubChem-20897503
REMARK  2 active torsions:
REMARK  status: ('A' for Active; 'I' for Inactive)
REMARK    1  A    between atoms: C_10  and  C_14
REMARK    2  A    between atoms: N_16  and  C_18
REMARK                            x       y       z     vdW  Elec       q    Type
REMARK                         _______ _______ _______ _____ _____    ______ ____
ROOT
ATOM      1  C   UNL     1     -41.385  -2.300 -32.944  0.00  0.00    +0.000 C 
ATOM      2  C   UNL     1     -42.803  -2.705 -33.169  0.00  0.00    +0.000 A 
ATOM      3  C   UNL     1     -43.860  -1.781 -33.051  0.00  0.00    +0.000 A 
ATOM      4  C   UNL     1     -43.611  -0.355 -32.695  0.00  0.00    +0.000 C 
ATOM      5  C   UNL     1     -45.176  -2.198 -33.270  0.00  0.00    +0.000 A 
ATOM      6  C   UNL     1     -45.449  -3.530 -33.608  0.00  0.00    +0.000 A 
ATOM      7  C   UNL     1     -46.755  -3.983 -33.834  0.00  0.00    +0.000 A 
ATOM      8  O   UNL     1     -47.741  -3.204 -33.739  0.00  0.00    +0.000 OA
ATOM      9  C   UNL     1     -46.964  -5.319 -34.174  0.00  0.00    +0.000 A 
ATOM     10  C   UNL     1     -45.862  -6.179 -34.281  0.00  0.00    +0.000 A 
ATOM     11  O   UNL     1     -44.634  -5.720 -34.046  0.00  0.00    +0.000 OA
ATOM     12  C   UNL     1     -44.389  -4.453 -33.726  0.00  0.00    +0.000 A 
ATOM     13  C   UNL     1     -43.075  -4.035 -33.505  0.00  0.00    +0.000 A 
ENDROOT
BRANCH  10  14
ATOM     14  C   UNL     1     -46.062  -7.598 -34.637  0.00  0.00    +0.000 C 
ATOM     15  O   UNL     1     -46.446  -8.411 -33.754  0.00  0.00    +0.000 OA
ATOM     16  N   UNL     1     -45.769  -8.096 -35.950  0.00  0.00    +0.000 N 
ATOM     17  H   UNL     1     -45.420  -9.015 -36.011  0.00  0.00    +0.000 HD
BRANCH  16  18
ATOM     18  C   UNL     1     -45.937  -7.382 -37.180  0.00  0.00    +0.000 A 
ATOM     19  C   UNL     1     -44.835  -7.061 -37.995  0.00  0.00    +0.000 A 
ATOM     20  C   UNL     1     -45.039  -6.346 -39.173  0.00  0.00    +0.000 A 
ATOM     21  N   UNL     1     -44.029  -6.015 -40.014  0.00  0.00    +0.000 NA
ATOM     22  S   UNL     1     -44.882  -5.207 -41.180  0.00  0.00    +0.000 S 
ATOM     23  N   UNL     1     -46.466  -5.237 -40.701  0.00  0.00    +0.000 NA
ATOM     24  C   UNL     1     -46.347  -5.928 -39.541  0.00  0.00    +0.000 A 
ATOM     25  C   UNL     1     -47.436  -6.227 -38.725  0.00  0.00    +0.000 A 
ATOM     26  C   UNL     1     -47.224  -6.950 -37.542  0.00  0.00    +0.000 A 
ENDBRANCH  16  18
ENDBRANCH  10  14
TORSDOF 2
ENDMDL
