MODEL 1
REMARK VINA RESULT:      -7.6      0.000      0.000
REMARK  Name = ZINC000013148091 ZINC13148091 PubChem-25726336
REMARK  5 active torsions:
REMARK  status: ('A' for Active; 'I' for Inactive)
REMARK    1  A    between atoms: C_1  and  C_6
REMARK    2  A    between atoms: C_1  and  C_17
REMARK    3  A    between atoms: C_1  and  C_32
REMARK    4  A    between atoms: C_2  and  C_14
REMARK    5  A    between atoms: C_21  and  C_26
REMARK                            x       y       z     vdW  Elec       q    Type
REMARK                         _______ _______ _______ _____ _____    ______ ____
ROOT
ATOM      1  C   UNL     1     -44.633 -18.309 -22.742  0.00  0.00    +0.000 C 
ENDROOT
BRANCH   1   6
ATOM      2  C   UNL     1     -43.374 -18.966 -26.217  0.00  0.00    +0.000 C 
ATOM      3  N   UNL     1     -44.569 -19.411 -25.965  0.00  0.00    +0.000 NA
ATOM      4  C   UNL     1     -45.469 -18.737 -25.079  0.00  0.00    +0.000 C 
ATOM      5  O   UNL     1     -46.686 -19.057 -25.074  0.00  0.00    +0.000 OA
ATOM      6  C   UNL     1     -44.967 -17.689 -24.116  0.00  0.00    +0.000 C 
ATOM      7  C   UNL     1     -43.749 -17.027 -24.703  0.00  0.00    +0.000 C 
ATOM      8  O   UNL     1     -43.427 -15.866 -24.343  0.00  0.00    +0.000 OA
ATOM      9  N   UNL     1     -42.940 -17.722 -25.651  0.00  0.00    +0.000 N 
ATOM     10  H   UNL     1     -42.072 -17.343 -25.920  0.00  0.00    +0.000 HD
BRANCH   2  14
ATOM     11  C   UNL     1     -40.805 -21.130 -28.864  0.00  0.00    +0.000 A 
ATOM     12  C   UNL     1     -42.063 -20.710 -29.302  0.00  0.00    +0.000 A 
ATOM     13  C   UNL     1     -42.899 -19.999 -28.440  0.00  0.00    +0.000 A 
ATOM     14  C   UNL     1     -42.489 -19.707 -27.131  0.00  0.00    +0.000 A 
ATOM     15  C   UNL     1     -41.225 -20.135 -26.700  0.00  0.00    +0.000 A 
ATOM     16  C   UNL     1     -40.386 -20.842 -27.565  0.00  0.00    +0.000 A 
ENDBRANCH   2  14
ENDBRANCH   1   6
BRANCH   1  17
ATOM     17  C   UNL     1     -43.120 -18.523 -22.517  0.00  0.00    +0.000 C 
ATOM     18  C   UNL     1     -42.798 -19.975 -22.329  0.00  0.00    +0.000 C 
ATOM     19  O   UNL     1     -42.966 -20.785 -23.276  0.00  0.00    +0.000 OA
ATOM     20  N   UNL     1     -42.327 -20.448 -21.069  0.00  0.00    +0.000 N 
ATOM     21  C   UNL     1     -42.022 -19.548 -19.998  0.00  0.00    +0.000 C 
ATOM     22  N   UNL     1     -42.115 -18.262 -20.177  0.00  0.00    +0.000 NA
ATOM     23  C   UNL     1     -42.547 -17.676 -21.409  0.00  0.00    +0.000 C 
ATOM     24  O   UNL     1     -42.467 -16.430 -21.560  0.00  0.00    +0.000 OA
ATOM     25  H   UNL     1     -42.208 -21.416 -20.932  0.00  0.00    +0.000 HD
BRANCH  21  26
ATOM     26  C   UNL     1     -41.558 -20.082 -18.704  0.00  0.00    +0.000 A 
ATOM     27  C   UNL     1     -41.739 -19.337 -17.530  0.00  0.00    +0.000 A 
ATOM     28  C   UNL     1     -41.309 -19.841 -16.300  0.00  0.00    +0.000 A 
ATOM     29  C   UNL     1     -40.691 -21.092 -16.234  0.00  0.00    +0.000 A 
ATOM     30  C   UNL     1     -40.503 -21.841 -17.399  0.00  0.00    +0.000 A 
ATOM     31  C   UNL     1     -40.935 -21.338 -18.630  0.00  0.00    +0.000 A 
ENDBRANCH  21  26
ENDBRANCH   1  17
BRANCH   1  32
ATOM     32  C   UNL     1     -45.302 -17.612 -21.583  0.00  0.00    +0.000 A 
ATOM     33  C   UNL     1     -45.548 -16.229 -21.606  0.00  0.00    +0.000 A 
ATOM     34  C   UNL     1     -46.171 -15.605 -20.523  0.00  0.00    +0.000 A 
ATOM     35  C   UNL     1     -46.550 -16.361 -19.410  0.00  0.00    +0.000 A 
ATOM     36  C   UNL     1     -46.312 -17.738 -19.383  0.00  0.00    +0.000 A 
ATOM     37  C   UNL     1     -45.692 -18.363 -20.468  0.00  0.00    +0.000 A 
ATOM     38 CL   UNL     1     -47.315 -15.583 -18.044  0.00  0.00    +0.000 Cl
ENDBRANCH   1  32
TORSDOF 5
ENDMDL
MODEL 2
REMARK VINA RESULT:      -7.5     11.460     13.822
REMARK  Name = ZINC000013148091 ZINC13148091 PubChem-25726336
REMARK  5 active torsions:
REMARK  status: ('A' for Active; 'I' for Inactive)
REMARK    1  A    between atoms: C_1  and  C_6
REMARK    2  A    between atoms: C_1  and  C_17
REMARK    3  A    between atoms: C_1  and  C_32
REMARK    4  A    between atoms: C_2  and  C_14
REMARK    5  A    between atoms: C_21  and  C_26
REMARK                            x       y       z     vdW  Elec       q    Type
REMARK                         _______ _______ _______ _____ _____    ______ ____
ROOT
ATOM      1  C   UNL     1     -44.897  -8.525 -28.502  0.00  0.00    +0.000 C 
ENDROOT
BRANCH   1   6
ATOM      2  C   UNL     1     -45.446 -10.435 -31.686  0.00  0.00    +0.000 C 
ATOM      3  N   UNL     1     -44.202 -10.253 -31.354  0.00  0.00    +0.000 NA
ATOM      4  C   UNL     1     -43.769 -10.215 -29.990  0.00  0.00    +0.000 C 
ATOM      5  O   UNL     1     -42.541 -10.301 -29.730  0.00  0.00    +0.000 OA
ATOM      6  C   UNL     1     -44.759 -10.019 -28.869  0.00  0.00    +0.000 C 
ATOM      7  C   UNL     1     -46.092 -10.580 -29.287  0.00  0.00    +0.000 C 
ATOM      8  O   UNL     1     -46.923 -10.949 -28.418  0.00  0.00    +0.000 OA
ATOM      9  N   UNL     1     -46.430 -10.674 -30.671  0.00  0.00    +0.000 N 
ATOM     10  H   UNL     1     -47.351 -10.905 -30.932  0.00  0.00    +0.000 HD
BRANCH   2  14
ATOM     11  C   UNL     1     -46.588 -10.508 -35.807  0.00  0.00    +0.000 A 
ATOM     12  C   UNL     1     -46.632  -9.309 -35.093  0.00  0.00    +0.000 A 
ATOM     13  C   UNL     1     -46.255  -9.284 -33.749  0.00  0.00    +0.000 A 
ATOM     14  C   UNL     1     -45.835 -10.458 -33.106  0.00  0.00    +0.000 A 
ATOM     15  C   UNL     1     -45.796 -11.657 -33.831  0.00  0.00    +0.000 A 
ATOM     16  C   UNL     1     -46.169 -11.680 -35.178  0.00  0.00    +0.000 A 
ENDBRANCH   2  14
ENDBRANCH   1   6
BRANCH   1  17
ATOM     17  C   UNL     1     -46.317  -8.135 -28.038  0.00  0.00    +0.000 C 
ATOM     18  C   UNL     1     -46.795  -6.897 -28.735  0.00  0.00    +0.000 C 
ATOM     19  O   UNL     1     -46.999  -6.911 -29.976  0.00  0.00    +0.000 OA
ATOM     20  N   UNL     1     -46.997  -5.692 -27.999  0.00  0.00    +0.000 N 
ATOM     21  C   UNL     1     -46.881  -5.658 -26.572  0.00  0.00    +0.000 C 
ATOM     22  N   UNL     1     -46.643  -6.752 -25.908  0.00  0.00    +0.000 NA
ATOM     23  C   UNL     1     -46.455  -8.022 -26.541  0.00  0.00    +0.000 C 
ATOM     24  O   UNL     1     -46.382  -9.058 -25.832  0.00  0.00    +0.000 OA
ATOM     25  H   UNL     1     -47.223  -4.865 -28.483  0.00  0.00    +0.000 HD
BRANCH  21  26
ATOM     26  C   UNL     1     -47.076  -4.385 -25.854  0.00  0.00    +0.000 A 
ATOM     27  C   UNL     1     -47.088  -4.364 -24.451  0.00  0.00    +0.000 A 
ATOM     28  C   UNL     1     -47.264  -3.160 -23.765  0.00  0.00    +0.000 A 
ATOM     29  C   UNL     1     -47.435  -1.969 -24.474  0.00  0.00    +0.000 A 
ATOM     30  C   UNL     1     -47.428  -1.980 -25.871  0.00  0.00    +0.000 A 
ATOM     31  C   UNL     1     -47.249  -3.184 -26.560  0.00  0.00    +0.000 A 
ENDBRANCH  21  26
ENDBRANCH   1  17
BRANCH   1  32
ATOM     32  C   UNL     1     -43.821  -8.029 -27.566  0.00  0.00    +0.000 A 
ATOM     33  C   UNL     1     -43.297  -8.850 -26.554  0.00  0.00    +0.000 A 
ATOM     34  C   UNL     1     -42.300  -8.371 -25.702  0.00  0.00    +0.000 A 
ATOM     35  C   UNL     1     -41.823  -7.067 -25.856  0.00  0.00    +0.000 A 
ATOM     36  C   UNL     1     -42.336  -6.246 -26.864  0.00  0.00    +0.000 A 
ATOM     37  C   UNL     1     -43.332  -6.727 -27.720  0.00  0.00    +0.000 A 
ATOM     38 CL   UNL     1     -40.587  -6.455 -24.782  0.00  0.00    +0.000 Cl
ENDBRANCH   1  32
TORSDOF 5
ENDMDL
MODEL 3
REMARK VINA RESULT:      -7.4      5.752     10.354
REMARK  Name = ZINC000013148091 ZINC13148091 PubChem-25726336
REMARK  5 active torsions:
REMARK  status: ('A' for Active; 'I' for Inactive)
REMARK    1  A    between atoms: C_1  and  C_6
REMARK    2  A    between atoms: C_1  and  C_17
REMARK    3  A    between atoms: C_1  and  C_32
REMARK    4  A    between atoms: C_2  and  C_14
REMARK    5  A    between atoms: C_21  and  C_26
REMARK                            x       y       z     vdW  Elec       q    Type
REMARK                         _______ _______ _______ _____ _____    ______ ____
ROOT
ATOM      1  C   UNL     1     -45.449 -13.970 -25.505  0.00  0.00    +0.000 C 
ENDROOT
BRANCH   1   6
ATOM      2  C   UNL     1     -45.625 -14.352 -21.775  0.00  0.00    +0.000 C 
ATOM      3  N   UNL     1     -44.604 -14.920 -22.346  0.00  0.00    +0.000 NA
ATOM      4  C   UNL     1     -43.971 -14.374 -23.508  0.00  0.00    +0.000 C 
ATOM      5  O   UNL     1     -42.843 -14.810 -23.858  0.00  0.00    +0.000 OA
ATOM      6  C   UNL     1     -44.661 -13.326 -24.344  0.00  0.00    +0.000 C 
ATOM      7  C   UNL     1     -45.583 -12.525 -23.465  0.00  0.00    +0.000 C 
ATOM      8  O   UNL     1     -45.909 -11.355 -23.791  0.00  0.00    +0.000 OA
ATOM      9  N   UNL     1     -46.113 -13.097 -22.269  0.00  0.00    +0.000 N 
ATOM     10  H   UNL     1     -46.824 -12.625 -21.778  0.00  0.00    +0.000 HD
BRANCH   2  14
ATOM     11  C   UNL     1     -47.428 -16.130 -18.329  0.00  0.00    +0.000 A 
ATOM     12  C   UNL     1     -46.509 -16.857 -19.089  0.00  0.00    +0.000 A 
ATOM     13  C   UNL     1     -45.917 -16.275 -20.211  0.00  0.00    +0.000 A 
ATOM     14  C   UNL     1     -46.241 -14.964 -20.586  0.00  0.00    +0.000 A 
ATOM     15  C   UNL     1     -47.166 -14.242 -19.818  0.00  0.00    +0.000 A 
ATOM     16  C   UNL     1     -47.755 -14.824 -18.692  0.00  0.00    +0.000 A 
ENDBRANCH   2  14
ENDBRANCH   1   6
BRANCH   1  17
ATOM     17  C   UNL     1     -45.288 -13.220 -26.846  0.00  0.00    +0.000 C 
ATOM     18  C   UNL     1     -44.099 -12.308 -26.819  0.00  0.00    +0.000 C 
ATOM     19  O   UNL     1     -42.939 -12.787 -26.729  0.00  0.00    +0.000 OA
ATOM     20  N   UNL     1     -44.278 -10.894 -26.869  0.00  0.00    +0.000 N 
ATOM     21  C   UNL     1     -45.568 -10.310 -27.078  0.00  0.00    +0.000 C 
ATOM     22  N   UNL     1     -46.605 -11.069 -27.287  0.00  0.00    +0.000 NA
ATOM     23  C   UNL     1     -46.535 -12.499 -27.290  0.00  0.00    +0.000 C 
ATOM     24  O   UNL     1     -47.541 -13.163 -27.648  0.00  0.00    +0.000 OA
ATOM     25  H   UNL     1     -43.495 -10.306 -26.759  0.00  0.00    +0.000 HD
BRANCH  21  26
ATOM     26  C   UNL     1     -45.711  -8.842 -27.101  0.00  0.00    +0.000 A 
ATOM     27  C   UNL     1     -46.282  -8.209 -28.214  0.00  0.00    +0.000 A 
ATOM     28  C   UNL     1     -46.428  -6.819 -28.238  0.00  0.00    +0.000 A 
ATOM     29  C   UNL     1     -45.998  -6.052 -27.153  0.00  0.00    +0.000 A 
ATOM     30  C   UNL     1     -45.426  -6.674 -26.041  0.00  0.00    +0.000 A 
ATOM     31  C   UNL     1     -45.282  -8.065 -26.014  0.00  0.00    +0.000 A 
ENDBRANCH  21  26
ENDBRANCH   1  17
BRANCH   1  32
ATOM     32  C   UNL     1     -45.227 -15.457 -25.638  0.00  0.00    +0.000 A 
ATOM     33  C   UNL     1     -44.213 -15.974 -26.461  0.00  0.00    +0.000 A 
ATOM     34  C   UNL     1     -44.025 -17.354 -26.566  0.00  0.00    +0.000 A 
ATOM     35  C   UNL     1     -44.850 -18.224 -25.850  0.00  0.00    +0.000 A 
ATOM     36  C   UNL     1     -45.857 -17.716 -25.025  0.00  0.00    +0.000 A 
ATOM     37  C   UNL     1     -46.045 -16.334 -24.917  0.00  0.00    +0.000 A 
ATOM     38 CL   UNL     1     -44.630 -19.952 -25.990  0.00  0.00    +0.000 Cl
ENDBRANCH   1  32
TORSDOF 5
ENDMDL
