MODEL 1
REMARK VINA RESULT:      -7.3      0.000      0.000
REMARK  Name = ZINC000004702219 ZINC04702219 PubChem-1342041
REMARK  3 active torsions:
REMARK  status: ('A' for Active; 'I' for Inactive)
REMARK    1  A    between atoms: C_3  and  C_22
REMARK    2  A    between atoms: C_4  and  C_16
REMARK    3  A    between atoms: N_24  and  C_26
REMARK                            x       y       z     vdW  Elec       q    Type
REMARK                         _______ _______ _______ _____ _____    ______ ____
ROOT
ATOM      1  C   UNL     1     -44.880  -8.102 -33.980  0.00  0.00    +0.000 C 
ATOM      2  C   UNL     1     -45.008  -6.935 -33.059  0.00  0.00    +0.000 C 
ATOM      3  C   UNL     1     -45.612  -7.010 -31.848  0.00  0.00    +0.000 C 
ATOM      4  C   UNL     1     -45.579  -5.800 -30.929  0.00  0.00    +0.000 C 
ATOM      5  C   UNL     1     -45.350  -4.480 -31.632  0.00  0.00    +0.000 C 
ATOM      6  C   UNL     1     -44.748  -4.456 -32.832  0.00  0.00    +0.000 C 
ATOM      7  N   UNL     1     -44.507  -5.679 -33.529  0.00  0.00    +0.000 N 
ATOM      8  C   UNL     1     -44.445  -3.158 -33.529  0.00  0.00    +0.000 C 
ATOM      9  C   UNL     1     -44.141  -2.021 -32.550  0.00  0.00    +0.000 C 
ATOM     10  C   UNL     1     -45.250  -1.888 -31.502  0.00  0.00    +0.000 C 
ATOM     11  C   UNL     1     -45.685  -3.213 -30.942  0.00  0.00    +0.000 C 
ATOM     12  O   UNL     1     -46.362  -3.232 -29.880  0.00  0.00    +0.000 OA
ATOM     13  C   UNL     1     -44.055  -0.725 -33.326  0.00  0.00    +0.000 C 
ATOM     14  C   UNL     1     -42.805  -2.258 -31.864  0.00  0.00    +0.000 C 
ATOM     15  H   UNL     1     -43.978  -5.658 -34.359  0.00  0.00    +0.000 HD
ENDROOT
BRANCH   4  16
ATOM     16  C   UNL     1     -44.583  -5.991 -29.821  0.00  0.00    +0.000 A 
ATOM     17  C   UNL     1     -44.988  -6.327 -28.524  0.00  0.00    +0.000 A 
ATOM     18  C   UNL     1     -44.036  -6.503 -27.519  0.00  0.00    +0.000 A 
ATOM     19  C   UNL     1     -42.684  -6.339 -27.826  0.00  0.00    +0.000 A 
ATOM     20  N   UNL     1     -42.306  -6.015 -29.092  0.00  0.00    +0.000 NA
ATOM     21  C   UNL     1     -43.218  -5.840 -30.085  0.00  0.00    +0.000 A 
ENDBRANCH   4  16
BRANCH   3  22
ATOM     22  C   UNL     1     -46.262  -8.245 -31.322  0.00  0.00    +0.000 C 
ATOM     23  O   UNL     1     -47.490  -8.461 -31.505  0.00  0.00    +0.000 OA
ATOM     24  N   UNL     1     -45.467  -9.191 -30.591  0.00  0.00    +0.000 N 
ATOM     25  H   UNL     1     -44.523  -8.952 -30.447  0.00  0.00    +0.000 HD
BRANCH  24  26
ATOM     26  C   UNL     1     -45.899 -10.447 -30.049  0.00  0.00    +0.000 A 
ATOM     27  C   UNL     1     -45.829 -11.586 -30.859  0.00  0.00    +0.000 A 
ATOM     28  C   UNL     1     -46.244 -12.829 -30.369  0.00  0.00    +0.000 A 
ATOM     29  C   UNL     1     -46.732 -12.938 -29.064  0.00  0.00    +0.000 A 
ATOM     30  C   UNL     1     -46.805 -11.805 -28.249  0.00  0.00    +0.000 A 
ATOM     31  C   UNL     1     -46.390 -10.563 -28.740  0.00  0.00    +0.000 A 
ATOM     32  F   UNL     1     -47.278 -11.910 -26.985  0.00  0.00    +0.000 F 
ENDBRANCH  24  26
ENDBRANCH   3  22
TORSDOF 3
ENDMDL
MODEL 2
REMARK VINA RESULT:      -7.1      3.036      7.737
REMARK  Name = ZINC000004702219 ZINC04702219 PubChem-1342041
REMARK  3 active torsions:
REMARK  status: ('A' for Active; 'I' for Inactive)
REMARK    1  A    between atoms: C_3  and  C_22
REMARK    2  A    between atoms: C_4  and  C_16
REMARK    3  A    between atoms: N_24  and  C_26
REMARK                            x       y       z     vdW  Elec       q    Type
REMARK                         _______ _______ _______ _____ _____    ______ ____
ROOT
ATOM      1  C   UNL     1     -46.829  -4.947 -27.862  0.00  0.00    +0.000 C 
ATOM      2  C   UNL     1     -46.541  -6.223 -28.582  0.00  0.00    +0.000 C 
ATOM      3  C   UNL     1     -46.209  -6.274 -29.894  0.00  0.00    +0.000 C 
ATOM      4  C   UNL     1     -45.810  -7.607 -30.505  0.00  0.00    +0.000 C 
ATOM      5  C   UNL     1     -46.316  -8.821 -29.756  0.00  0.00    +0.000 C 
ATOM      6  C   UNL     1     -46.634  -8.721 -28.456  0.00  0.00    +0.000 C 
ATOM      7  N   UNL     1     -46.684  -7.436 -27.834  0.00  0.00    +0.000 N 
ATOM      8  C   UNL     1     -47.077  -9.921 -27.664  0.00  0.00    +0.000 C 
ATOM      9  C   UNL     1     -46.424 -11.218 -28.147  0.00  0.00    +0.000 C 
ATOM     10  C   UNL     1     -46.611 -11.399 -29.656  0.00  0.00    +0.000 C 
ATOM     11  C   UNL     1     -46.349 -10.139 -30.431  0.00  0.00    +0.000 C 
ATOM     12  O   UNL     1     -46.176 -10.215 -31.677  0.00  0.00    +0.000 OA
ATOM     13  C   UNL     1     -47.080 -12.383 -27.438  0.00  0.00    +0.000 C 
ATOM     14  C   UNL     1     -44.942 -11.222 -27.803  0.00  0.00    +0.000 C 
ATOM     15  H   UNL     1     -46.821  -7.382 -26.861  0.00  0.00    +0.000 HD
ENDROOT
BRANCH   4  16
ATOM     16  C   UNL     1     -44.322  -7.688 -30.699  0.00  0.00    +0.000 A 
ATOM     17  C   UNL     1     -43.447  -7.782 -29.609  0.00  0.00    +0.000 A 
ATOM     18  C   UNL     1     -42.071  -7.861 -29.825  0.00  0.00    +0.000 A 
ATOM     19  C   UNL     1     -41.585  -7.844 -31.134  0.00  0.00    +0.000 A 
ATOM     20  N   UNL     1     -42.448  -7.755 -32.181  0.00  0.00    +0.000 NA
ATOM     21  C   UNL     1     -43.792  -7.678 -31.993  0.00  0.00    +0.000 A 
ENDBRANCH   4  16
BRANCH   3  22
ATOM     22  C   UNL     1     -46.146  -5.076 -30.780  0.00  0.00    +0.000 C 
ATOM     23  O   UNL     1     -47.167  -4.670 -31.397  0.00  0.00    +0.000 OA
ATOM     24  N   UNL     1     -44.896  -4.387 -30.929  0.00  0.00    +0.000 N 
ATOM     25  H   UNL     1     -44.124  -4.771 -30.453  0.00  0.00    +0.000 HD
BRANCH  24  26
ATOM     26  C   UNL     1     -44.648  -3.200 -31.694  0.00  0.00    +0.000 A 
ATOM     27  C   UNL     1     -44.126  -3.331 -32.986  0.00  0.00    +0.000 A 
ATOM     28  C   UNL     1     -43.867  -2.198 -33.763  0.00  0.00    +0.000 A 
ATOM     29  C   UNL     1     -44.128  -0.925 -33.250  0.00  0.00    +0.000 A 
ATOM     30  C   UNL     1     -44.649  -0.785 -31.961  0.00  0.00    +0.000 A 
ATOM     31  C   UNL     1     -44.907  -1.919 -31.186  0.00  0.00    +0.000 A 
ATOM     32  F   UNL     1     -44.902   0.449 -31.463  0.00  0.00    +0.000 F 
ENDBRANCH  24  26
ENDBRANCH   3  22
TORSDOF 3
ENDMDL
MODEL 3
REMARK VINA RESULT:      -7.0      8.921     14.401
REMARK  Name = ZINC000004702219 ZINC04702219 PubChem-1342041
REMARK  3 active torsions:
REMARK  status: ('A' for Active; 'I' for Inactive)
REMARK    1  A    between atoms: C_3  and  C_22
REMARK    2  A    between atoms: C_4  and  C_16
REMARK    3  A    between atoms: N_24  and  C_26
REMARK                            x       y       z     vdW  Elec       q    Type
REMARK                         _______ _______ _______ _____ _____    ______ ____
ROOT
ATOM      1  C   UNL     1     -42.743 -14.246 -22.896  0.00  0.00    +0.000 C 
ATOM      2  C   UNL     1     -43.443 -15.452 -22.365  0.00  0.00    +0.000 C 
ATOM      3  C   UNL     1     -44.650 -15.868 -22.818  0.00  0.00    +0.000 C 
ATOM      4  C   UNL     1     -45.222 -17.179 -22.305  0.00  0.00    +0.000 C 
ATOM      5  C   UNL     1     -44.665 -17.631 -20.973  0.00  0.00    +0.000 C 
ATOM      6  C   UNL     1     -43.465 -17.191 -20.564  0.00  0.00    +0.000 C 
ATOM      7  N   UNL     1     -42.807 -16.150 -21.288  0.00  0.00    +0.000 N 
ATOM      8  C   UNL     1     -42.852 -17.671 -19.277  0.00  0.00    +0.000 C 
ATOM      9  C   UNL     1     -43.241 -19.113 -18.942  0.00  0.00    +0.000 C 
ATOM     10  C   UNL     1     -44.761 -19.294 -18.981  0.00  0.00    +0.000 C 
ATOM     11  C   UNL     1     -45.396 -18.646 -20.179  0.00  0.00    +0.000 C 
ATOM     12  O   UNL     1     -46.574 -18.965 -20.491  0.00  0.00    +0.000 OA
ATOM     13  C   UNL     1     -42.754 -19.433 -17.545  0.00  0.00    +0.000 C 
ATOM     14  C   UNL     1     -42.578 -20.077 -19.913  0.00  0.00    +0.000 C 
ATOM     15  H   UNL     1     -41.887 -15.904 -21.039  0.00  0.00    +0.000 HD
ENDROOT
BRANCH   4  16
ATOM     16  C   UNL     1     -45.085 -18.266 -23.333  0.00  0.00    +0.000 A 
ATOM     17  C   UNL     1     -43.957 -19.096 -23.373  0.00  0.00    +0.000 A 
ATOM     18  C   UNL     1     -43.864 -20.100 -24.337  0.00  0.00    +0.000 A 
ATOM     19  C   UNL     1     -44.906 -20.264 -25.253  0.00  0.00    +0.000 A 
ATOM     20  N   UNL     1     -45.995 -19.452 -25.198  0.00  0.00    +0.000 NA
ATOM     21  C   UNL     1     -46.106 -18.468 -24.267  0.00  0.00    +0.000 A 
ENDBRANCH   4  16
BRANCH   3  22
ATOM     22  C   UNL     1     -45.439 -15.143 -23.856  0.00  0.00    +0.000 C 
ATOM     23  O   UNL     1     -46.647 -14.841 -23.661  0.00  0.00    +0.000 OA
ATOM     24  N   UNL     1     -44.804 -14.797 -25.096  0.00  0.00    +0.000 N 
ATOM     25  H   UNL     1     -43.871 -15.091 -25.208  0.00  0.00    +0.000 HD
BRANCH  24  26
ATOM     26  C   UNL     1     -45.380 -14.067 -26.188  0.00  0.00    +0.000 A 
ATOM     27  C   UNL     1     -45.199 -14.552 -27.489  0.00  0.00    +0.000 A 
ATOM     28  C   UNL     1     -45.742 -13.867 -28.581  0.00  0.00    +0.000 A 
ATOM     29  C   UNL     1     -46.467 -12.691 -28.378  0.00  0.00    +0.000 A 
ATOM     30  C   UNL     1     -46.652 -12.200 -27.082  0.00  0.00    +0.000 A 
ATOM     31  C   UNL     1     -46.110 -12.885 -25.992  0.00  0.00    +0.000 A 
ATOM     32  F   UNL     1     -47.355 -11.059 -26.885  0.00  0.00    +0.000 F 
ENDBRANCH  24  26
ENDBRANCH   3  22
TORSDOF 3
ENDMDL
