MODEL 1
REMARK VINA RESULT:      -7.6      0.000      0.000
REMARK  Name = ZINC000031809026
REMARK  1 active torsions:
REMARK  status: ('A' for Active; 'I' for Inactive)
REMARK    1  A    between atoms: C_7  and  C_24
REMARK                            x       y       z     vdW  Elec       q    Type
REMARK                         _______ _______ _______ _____ _____    ______ ____
ROOT
ATOM      1  C   UNL     1     -47.558  -3.730 -33.711  0.00  0.00    +0.000 C 
ATOM      2  C   UNL     1     -46.925  -4.861 -34.445  0.00  0.00    +0.000 A 
ATOM      3  N   UNL     1     -47.454  -5.373 -35.570  0.00  0.00    +0.000 NA
ATOM      4  N   UNL     1     -46.700  -6.387 -35.947  0.00  0.00    +0.000 N 
ATOM      5  C   UNL     1     -45.681  -6.552 -35.073  0.00  0.00    +0.000 A 
ATOM      6  C   UNL     1     -45.760  -5.551 -34.093  0.00  0.00    +0.000 A 
ATOM      7  C   UNL     1     -44.894  -5.267 -32.873  0.00  0.00    +0.000 C 
ATOM      8  S   UNL     1     -43.213  -5.962 -32.920  0.00  0.00    +0.000 S 
ATOM      9  C   UNL     1     -43.799  -7.668 -32.876  0.00  0.00    +0.000 C 
ATOM     10  C   UNL     1     -43.819  -8.146 -34.276  0.00  0.00    +0.000 C 
ATOM     11  O   UNL     1     -43.032  -9.063 -34.618  0.00  0.00    +0.000 OA
ATOM     12  N   UNL     1     -44.669  -7.554 -35.260  0.00  0.00    +0.000 N 
ATOM     13  H   UNL     1     -44.546  -7.874 -36.182  0.00  0.00    +0.000 HD
ATOM     14  C   UNL     1     -46.987  -7.165 -37.119  0.00  0.00    +0.000 A 
ATOM     15  N   UNL     1     -47.393  -6.544 -38.268  0.00  0.00    +0.000 NA
ATOM     16  C   UNL     1     -47.728  -7.255 -39.389  0.00  0.00    +0.000 A 
ATOM     17  N   UNL     1     -47.671  -8.621 -39.387  0.00  0.00    +0.000 NA
ATOM     18  C   UNL     1     -47.263  -9.239 -38.253  0.00  0.00    +0.000 A 
ATOM     19  N   UNL     1     -47.223 -10.559 -38.036  0.00  0.00    +0.000 N 
ATOM     20  C   UNL     1     -46.839 -10.631 -36.732  0.00  0.00    +0.000 A 
ATOM     21  N   UNL     1     -46.663  -9.419 -36.141  0.00  0.00    +0.000 NA
ATOM     22  C   UNL     1     -46.930  -8.558 -37.134  0.00  0.00    +0.000 A 
ATOM     23  H   UNL     1     -47.419 -11.293 -38.662  0.00  0.00    +0.000 HD
ENDROOT
BRANCH   7  24
ATOM     24  C   UNL     1     -44.773  -3.797 -32.560  0.00  0.00    +0.000 A 
ATOM     25  C   UNL     1     -44.099  -2.985 -33.485  0.00  0.00    +0.000 A 
ATOM     26  C   UNL     1     -43.969  -1.612 -33.262  0.00  0.00    +0.000 A 
ATOM     27  C   UNL     1     -44.512  -1.034 -32.114  0.00  0.00    +0.000 A 
ATOM     28  F   UNL     1     -44.379   0.296 -31.897  0.00  0.00    +0.000 F 
ATOM     29  C   UNL     1     -45.180  -1.830 -31.184  0.00  0.00    +0.000 A 
ATOM     30  C   UNL     1     -45.318  -3.205 -31.393  0.00  0.00    +0.000 A 
ATOM     31 CL   UNL     1     -46.171  -4.131 -30.166  0.00  0.00    +0.000 Cl
ENDBRANCH   7  24
TORSDOF 1
ENDMDL
MODEL 2
REMARK VINA RESULT:      -6.8      1.697      2.185
REMARK  Name = ZINC000031809026
REMARK  1 active torsions:
REMARK  status: ('A' for Active; 'I' for Inactive)
REMARK    1  A    between atoms: C_7  and  C_24
REMARK                            x       y       z     vdW  Elec       q    Type
REMARK                         _______ _______ _______ _____ _____    ______ ____
ROOT
ATOM      1  C   UNL     1     -47.069  -4.181 -33.866  0.00  0.00    +0.000 C 
ATOM      2  C   UNL     1     -46.348  -5.468 -34.075  0.00  0.00    +0.000 A 
ATOM      3  N   UNL     1     -46.628  -6.289 -35.102  0.00  0.00    +0.000 NA
ATOM      4  N   UNL     1     -45.868  -7.360 -34.984  0.00  0.00    +0.000 N 
ATOM      5  C   UNL     1     -45.093  -7.253 -33.881  0.00  0.00    +0.000 A 
ATOM      6  C   UNL     1     -45.341  -6.013 -33.273  0.00  0.00    +0.000 A 
ATOM      7  C   UNL     1     -44.769  -5.379 -32.011  0.00  0.00    +0.000 C 
ATOM      8  S   UNL     1     -43.168  -6.038 -31.453  0.00  0.00    +0.000 S 
ATOM      9  C   UNL     1     -43.847  -7.665 -31.071  0.00  0.00    +0.000 C 
ATOM     10  C   UNL     1     -43.566  -8.528 -32.240  0.00  0.00    +0.000 C 
ATOM     11  O   UNL     1     -42.776  -9.495 -32.108  0.00  0.00    +0.000 OA
ATOM     12  N   UNL     1     -44.126  -8.255 -33.526  0.00  0.00    +0.000 N 
ATOM     13  H   UNL     1     -43.809  -8.825 -34.262  0.00  0.00    +0.000 HD
ATOM     14  C   UNL     1     -45.917  -8.446 -35.921  0.00  0.00    +0.000 A 
ATOM     15  N   UNL     1     -46.006  -8.188 -37.261  0.00  0.00    +0.000 NA
ATOM     16  C   UNL     1     -46.109  -9.196 -38.182  0.00  0.00    +0.000 A 
ATOM     17  N   UNL     1     -46.134 -10.503 -37.780  0.00  0.00    +0.000 NA
ATOM     18  C   UNL     1     -46.040 -10.763 -36.454  0.00  0.00    +0.000 A 
ATOM     19  N   UNL     1     -46.129 -11.963 -35.870  0.00  0.00    +0.000 N 
ATOM     20  C   UNL     1     -46.066 -11.651 -34.547  0.00  0.00    +0.000 A 
ATOM     21  N   UNL     1     -45.963 -10.318 -34.298  0.00  0.00    +0.000 NA
ATOM     22  C   UNL     1     -45.939  -9.784 -35.527  0.00  0.00    +0.000 A 
ATOM     23  H   UNL     1     -46.216 -12.849 -36.291  0.00  0.00    +0.000 HD
ENDROOT
BRANCH   7  24
ATOM     24  C   UNL     1     -44.640  -3.880 -32.107  0.00  0.00    +0.000 A 
ATOM     25  C   UNL     1     -45.368  -3.101 -31.194  0.00  0.00    +0.000 A 
ATOM     26  C   UNL     1     -45.277  -1.708 -31.219  0.00  0.00    +0.000 A 
ATOM     27  C   UNL     1     -44.455  -1.075 -32.153  0.00  0.00    +0.000 A 
ATOM     28  F   UNL     1     -44.374   0.276 -32.180  0.00  0.00    +0.000 F 
ATOM     29  C   UNL     1     -43.730  -1.837 -33.068  0.00  0.00    +0.000 A 
ATOM     30  C   UNL     1     -43.811  -3.232 -33.057  0.00  0.00    +0.000 A 
ATOM     31 CL   UNL     1     -42.865  -4.110 -34.250  0.00  0.00    +0.000 Cl
ENDBRANCH   7  24
TORSDOF 1
ENDMDL
MODEL 3
REMARK VINA RESULT:      -6.7      5.112      6.889
REMARK  Name = ZINC000031809026
REMARK  1 active torsions:
REMARK  status: ('A' for Active; 'I' for Inactive)
REMARK    1  A    between atoms: C_7  and  C_24
REMARK                            x       y       z     vdW  Elec       q    Type
REMARK                         _______ _______ _______ _____ _____    ______ ____
ROOT
ATOM      1  C   UNL     1     -44.308  -6.264 -30.255  0.00  0.00    +0.000 C 
ATOM      2  C   UNL     1     -44.881  -7.634 -30.372  0.00  0.00    +0.000 A 
ATOM      3  N   UNL     1     -45.205  -8.371 -29.296  0.00  0.00    +0.000 NA
ATOM      4  N   UNL     1     -45.632  -9.544 -29.722  0.00  0.00    +0.000 N 
ATOM      5  C   UNL     1     -45.585  -9.587 -31.073  0.00  0.00    +0.000 A 
ATOM      6  C   UNL     1     -45.138  -8.345 -31.549  0.00  0.00    +0.000 A 
ATOM      7  C   UNL     1     -44.884  -7.843 -32.965  0.00  0.00    +0.000 C 
ATOM      8  S   UNL     1     -45.747  -8.744 -34.288  0.00  0.00    +0.000 S 
ATOM      9  C   UNL     1     -44.825 -10.268 -34.002  0.00  0.00    +0.000 C 
ATOM     10  C   UNL     1     -45.674 -11.122 -33.142  0.00  0.00    +0.000 C 
ATOM     11  O   UNL     1     -46.127 -12.197 -33.608  0.00  0.00    +0.000 OA
ATOM     12  N   UNL     1     -46.038 -10.729 -31.818  0.00  0.00    +0.000 N 
ATOM     13  H   UNL     1     -46.681 -11.314 -31.357  0.00  0.00    +0.000 HD
ATOM     14  C   UNL     1     -46.059 -10.580 -28.825  0.00  0.00    +0.000 A 
ATOM     15  N   UNL     1     -46.826 -10.267 -27.737  0.00  0.00    +0.000 NA
ATOM     16  C   UNL     1     -47.208 -11.219 -26.829  0.00  0.00    +0.000 A 
ATOM     17  N   UNL     1     -46.820 -12.521 -26.984  0.00  0.00    +0.000 NA
ATOM     18  C   UNL     1     -46.066 -12.835 -28.064  0.00  0.00    +0.000 A 
ATOM     19  N   UNL     1     -45.527 -14.029 -28.339  0.00  0.00    +0.000 N 
ATOM     20  C   UNL     1     -44.803 -13.774 -29.462  0.00  0.00    +0.000 A 
ATOM     21  N   UNL     1     -44.860 -12.478 -29.874  0.00  0.00    +0.000 NA
ATOM     22  C   UNL     1     -45.675 -11.913 -28.972  0.00  0.00    +0.000 A 
ATOM     23  H   UNL     1     -45.630 -14.878 -27.852  0.00  0.00    +0.000 HD
ENDROOT
BRANCH   7  24
ATOM     24  C   UNL     1     -45.187  -6.376 -33.137  0.00  0.00    +0.000 A 
ATOM     25  C   UNL     1     -46.531  -5.974 -33.079  0.00  0.00    +0.000 A 
ATOM     26  C   UNL     1     -46.875  -4.627 -33.213  0.00  0.00    +0.000 A 
ATOM     27  C   UNL     1     -45.883  -3.665 -33.403  0.00  0.00    +0.000 A 
ATOM     28  F   UNL     1     -46.220  -2.361 -33.540  0.00  0.00    +0.000 F 
ATOM     29  C   UNL     1     -44.545  -4.050 -33.467  0.00  0.00    +0.000 A 
ATOM     30  C   UNL     1     -44.183  -5.394 -33.336  0.00  0.00    +0.000 A 
ATOM     31 CL   UNL     1     -42.473  -5.789 -33.433  0.00  0.00    +0.000 Cl
ENDBRANCH   7  24
TORSDOF 1
ENDMDL
