MODEL 1
REMARK VINA RESULT:      -7.0      0.000      0.000
REMARK  Name = ZINC000033168752 ZINC33168752 PubChem-92884272
REMARK  7 active torsions:
REMARK  status: ('A' for Active; 'I' for Inactive)
REMARK    1  A    between atoms: C_5  and  C_21
REMARK    2  A    between atoms: C_7  and  S_13
REMARK    3  A    between atoms: S_13  and  C_18
REMARK    4  A    between atoms: N_23  and  C_25
REMARK    5  A    between atoms: C_25  and  C_26
REMARK    6  A    between atoms: C_28  and  O_34
REMARK    7  A    between atoms: C_31  and  O_32
REMARK                            x       y       z     vdW  Elec       q    Type
REMARK                         _______ _______ _______ _____ _____    ______ ____
ROOT
ATOM      1  N   UNL     1     -45.650  -6.763 -29.558  0.00  0.00    +0.000 N 
ATOM      2  C   UNL     1     -45.579  -6.554 -28.107  0.00  0.00    +0.000 C 
ATOM      3  C   UNL     1     -46.760  -5.747 -27.585  0.00  0.00    +0.000 C 
ATOM      4  C   UNL     1     -46.932  -4.511 -28.448  0.00  0.00    +0.000 C 
ATOM      5  C   UNL     1     -47.282  -4.887 -29.891  0.00  0.00    +0.000 C 
ATOM      6  C   UNL     1     -46.796  -6.279 -30.331  0.00  0.00    +0.000 C 
ATOM      7  C   UNL     1     -45.361  -9.065 -30.477  0.00  0.00    +0.000 A 
ATOM      8  C   UNL     1     -44.834  -7.806 -30.115  0.00  0.00    +0.000 A 
ATOM      9  N   UNL     1     -43.515  -7.562 -30.348  0.00  0.00    +0.000 NA
ATOM     10  C   UNL     1     -42.699  -8.494 -30.907  0.00  0.00    +0.000 A 
ATOM     11  C   UNL     1     -43.225  -9.731 -31.270  0.00  0.00    +0.000 A 
ATOM     12  N   UNL     1     -44.540  -9.984 -31.055  0.00  0.00    +0.000 NA
ENDROOT
BRANCH   5  13
ATOM     13  C   UNL     1     -46.818  -3.828 -30.834  0.00  0.00    +0.000 C 
ATOM     14  O   UNL     1     -46.249  -2.801 -30.376  0.00  0.00    +0.000 OA
ATOM     15  N   UNL     1     -46.999  -3.988 -32.242  0.00  0.00    +0.000 N 
ATOM     16  H   UNL     1     -47.390  -4.826 -32.579  0.00  0.00    +0.000 HD
BRANCH  15  17
ATOM     17  C   UNL     1     -46.624  -2.954 -33.192  0.00  0.00    +0.000 C 
BRANCH  17  18
ATOM     18  C   UNL     1     -45.144  -2.948 -33.371  0.00  0.00    +0.000 A 
ATOM     19  C   UNL     1     -44.439  -1.752 -33.207  0.00  0.00    +0.000 A 
ATOM     20  C   UNL     1     -43.050  -1.708 -33.397  0.00  0.00    +0.000 A 
ATOM     21  C   UNL     1     -42.372  -2.876 -33.754  0.00  0.00    +0.000 A 
ATOM     22  C   UNL     1     -43.070  -4.073 -33.923  0.00  0.00    +0.000 A 
ATOM     23  C   UNL     1     -44.461  -4.119 -33.736  0.00  0.00    +0.000 A 
BRANCH  20  24
ATOM     24  O   UNL     1     -42.325  -0.523 -33.242  0.00  0.00    +0.000 OA
ATOM     25  C   UNL     1     -41.350  -0.347 -32.222  0.00  0.00    +0.000 C 
ENDBRANCH  20  24
BRANCH  23  26
ATOM     26  O   UNL     1     -45.175  -5.313 -33.900  0.00  0.00    +0.000 OA
ATOM     27  C   UNL     1     -44.610  -6.590 -33.641  0.00  0.00    +0.000 C 
ENDBRANCH  23  26
ENDBRANCH  17  18
ENDBRANCH  15  17
ENDBRANCH   5  13
BRANCH   7  28
ATOM     28  S   UNL     1     -47.097  -9.474 -30.290  0.00  0.00    +0.000 S 
BRANCH  28  33
ATOM     29  C   UNL     1     -46.131 -13.728 -26.062  0.00  0.00    +0.000 C 
ATOM     30  C   UNL     1     -46.358 -12.686 -27.096  0.00  0.00    +0.000 A 
ATOM     31  C   UNL     1     -46.180 -11.337 -26.780  0.00  0.00    +0.000 A 
ATOM     32  C   UNL     1     -46.399 -10.357 -27.753  0.00  0.00    +0.000 A 
ATOM     33  C   UNL     1     -46.791 -10.725 -29.045  0.00  0.00    +0.000 A 
ATOM     34  C   UNL     1     -46.977 -12.076 -29.357  0.00  0.00    +0.000 A 
ATOM     35  C   UNL     1     -46.758 -13.055 -28.384  0.00  0.00    +0.000 A 
ENDBRANCH  28  33
ENDBRANCH   7  28
TORSDOF 7
ENDMDL
MODEL 2
REMARK VINA RESULT:      -6.6      3.274      9.560
REMARK  Name = ZINC000033168752 ZINC33168752 PubChem-92884272
REMARK  7 active torsions:
REMARK  status: ('A' for Active; 'I' for Inactive)
REMARK    1  A    between atoms: C_5  and  C_21
REMARK    2  A    between atoms: C_7  and  S_13
REMARK    3  A    between atoms: S_13  and  C_18
REMARK    4  A    between atoms: N_23  and  C_25
REMARK    5  A    between atoms: C_25  and  C_26
REMARK    6  A    between atoms: C_28  and  O_34
REMARK    7  A    between atoms: C_31  and  O_32
REMARK                            x       y       z     vdW  Elec       q    Type
REMARK                         _______ _______ _______ _____ _____    ______ ____
ROOT
ATOM      1  N   UNL     1     -45.055  -7.433 -31.021  0.00  0.00    +0.000 N 
ATOM      2  C   UNL     1     -43.669  -7.318 -30.553  0.00  0.00    +0.000 C 
ATOM      3  C   UNL     1     -42.733  -8.266 -31.291  0.00  0.00    +0.000 C 
ATOM      4  C   UNL     1     -43.343  -9.655 -31.295  0.00  0.00    +0.000 C 
ATOM      5  C   UNL     1     -44.665  -9.679 -32.068  0.00  0.00    +0.000 C 
ATOM      6  C   UNL     1     -45.403  -8.330 -32.126  0.00  0.00    +0.000 C 
ATOM      7  C   UNL     1     -46.312  -5.367 -31.637  0.00  0.00    +0.000 A 
ATOM      8  C   UNL     1     -45.951  -6.357 -30.698  0.00  0.00    +0.000 A 
ATOM      9  N   UNL     1     -46.513  -6.313 -29.459  0.00  0.00    +0.000 NA
ATOM     10  C   UNL     1     -47.397  -5.344 -29.105  0.00  0.00    +0.000 A 
ATOM     11  C   UNL     1     -47.755  -4.373 -30.036  0.00  0.00    +0.000 A 
ATOM     12  N   UNL     1     -47.213  -4.413 -31.279  0.00  0.00    +0.000 NA
ENDROOT
BRANCH   5  13
ATOM     13  C   UNL     1     -45.553 -10.761 -31.553  0.00  0.00    +0.000 C 
ATOM     14  O   UNL     1     -45.870 -11.712 -32.316  0.00  0.00    +0.000 OA
ATOM     15  N   UNL     1     -46.021 -10.729 -30.204  0.00  0.00    +0.000 N 
ATOM     16  H   UNL     1     -45.709 -10.009 -29.610  0.00  0.00    +0.000 HD
BRANCH  15  17
ATOM     17  C   UNL     1     -46.940 -11.725 -29.680  0.00  0.00    +0.000 C 
BRANCH  17  18
ATOM     18  C   UNL     1     -46.207 -12.664 -28.783  0.00  0.00    +0.000 A 
ATOM     19  C   UNL     1     -45.271 -13.546 -29.332  0.00  0.00    +0.000 A 
ATOM     20  C   UNL     1     -44.588 -14.461 -28.518  0.00  0.00    +0.000 A 
ATOM     21  C   UNL     1     -44.850 -14.485 -27.146  0.00  0.00    +0.000 A 
ATOM     22  C   UNL     1     -45.786 -13.610 -26.592  0.00  0.00    +0.000 A 
ATOM     23  C   UNL     1     -46.474 -12.694 -27.405  0.00  0.00    +0.000 A 
BRANCH  20  24
ATOM     24  O   UNL     1     -43.651 -15.354 -29.046  0.00  0.00    +0.000 OA
ATOM     25  C   UNL     1     -42.723 -16.063 -28.235  0.00  0.00    +0.000 C 
ENDBRANCH  20  24
BRANCH  23  26
ATOM     26  O   UNL     1     -47.414 -11.809 -26.864  0.00  0.00    +0.000 OA
ATOM     27  C   UNL     1     -47.054 -10.562 -26.287  0.00  0.00    +0.000 C 
ENDBRANCH  23  26
ENDBRANCH  17  18
ENDBRANCH  15  17
ENDBRANCH   5  13
BRANCH   7  28
ATOM     28  S   UNL     1     -45.697  -5.367 -33.323  0.00  0.00    +0.000 S 
BRANCH  28  33
ATOM     29  C   UNL     1     -42.230  -0.462 -32.412  0.00  0.00    +0.000 C 
ATOM     30  C   UNL     1     -43.077  -1.661 -32.644  0.00  0.00    +0.000 A 
ATOM     31  C   UNL     1     -44.283  -1.542 -33.338  0.00  0.00    +0.000 A 
ATOM     32  C   UNL     1     -45.080  -2.671 -33.551  0.00  0.00    +0.000 A 
ATOM     33  C   UNL     1     -44.670  -3.920 -33.075  0.00  0.00    +0.000 A 
ATOM     34  C   UNL     1     -43.465  -4.037 -32.374  0.00  0.00    +0.000 A 
ATOM     35  C   UNL     1     -42.668  -2.908 -32.161  0.00  0.00    +0.000 A 
ENDBRANCH  28  33
ENDBRANCH   7  28
TORSDOF 7
ENDMDL
MODEL 3
REMARK VINA RESULT:      -6.5      3.037      8.782
REMARK  Name = ZINC000033168752 ZINC33168752 PubChem-92884272
REMARK  7 active torsions:
REMARK  status: ('A' for Active; 'I' for Inactive)
REMARK    1  A    between atoms: C_5  and  C_21
REMARK    2  A    between atoms: C_7  and  S_13
REMARK    3  A    between atoms: S_13  and  C_18
REMARK    4  A    between atoms: N_23  and  C_25
REMARK    5  A    between atoms: C_25  and  C_26
REMARK    6  A    between atoms: C_28  and  O_34
REMARK    7  A    between atoms: C_31  and  O_32
REMARK                            x       y       z     vdW  Elec       q    Type
REMARK                         _______ _______ _______ _____ _____    ______ ____
ROOT
ATOM      1  N   UNL     1     -45.580  -6.638 -30.918  0.00  0.00    +0.000 N 
ATOM      2  C   UNL     1     -44.242  -6.287 -31.408  0.00  0.00    +0.000 C 
ATOM      3  C   UNL     1     -43.960  -6.880 -32.782  0.00  0.00    +0.000 C 
ATOM      4  C   UNL     1     -44.320  -8.354 -32.766  0.00  0.00    +0.000 C 
ATOM      5  C   UNL     1     -45.818  -8.557 -32.518  0.00  0.00    +0.000 C 
ATOM      6  C   UNL     1     -46.505  -7.414 -31.749  0.00  0.00    +0.000 C 
ATOM      7  C   UNL     1     -47.075  -4.838 -30.051  0.00  0.00    +0.000 A 
ATOM      8  C   UNL     1     -46.116  -5.852 -29.841  0.00  0.00    +0.000 A 
ATOM      9  N   UNL     1     -45.723  -6.122 -28.566  0.00  0.00    +0.000 NA
ATOM     10  C   UNL     1     -46.220  -5.439 -27.502  0.00  0.00    +0.000 A 
ATOM     11  C   UNL     1     -47.172  -4.446 -27.712  0.00  0.00    +0.000 A 
ATOM     12  N   UNL     1     -47.582  -4.175 -28.977  0.00  0.00    +0.000 NA
ENDROOT
BRANCH   5  13
ATOM     13  C   UNL     1     -46.066  -9.875 -31.865  0.00  0.00    +0.000 C 
ATOM     14  O   UNL     1     -45.859 -10.933 -32.518  0.00  0.00    +0.000 OA
ATOM     15  N   UNL     1     -46.513  -9.936 -30.510  0.00  0.00    +0.000 N 
ATOM     16  H   UNL     1     -46.608  -9.098 -30.003  0.00  0.00    +0.000 HD
BRANCH  15  17
ATOM     17  C   UNL     1     -46.830 -11.195 -29.857  0.00  0.00    +0.000 C 
BRANCH  17  18
ATOM     18  C   UNL     1     -46.648 -11.057 -28.384  0.00  0.00    +0.000 A 
ATOM     19  C   UNL     1     -46.678  -9.784 -27.805  0.00  0.00    +0.000 A 
ATOM     20  C   UNL     1     -46.479  -9.621 -26.426  0.00  0.00    +0.000 A 
ATOM     21  C   UNL     1     -46.251 -10.745 -25.630  0.00  0.00    +0.000 A 
ATOM     22  C   UNL     1     -46.216 -12.018 -26.201  0.00  0.00    +0.000 A 
ATOM     23  C   UNL     1     -46.411 -12.185 -27.582  0.00  0.00    +0.000 A 
BRANCH  20  24
ATOM     24  O   UNL     1     -46.502  -8.358 -25.828  0.00  0.00    +0.000 OA
ATOM     25  C   UNL     1     -47.489  -7.975 -24.879  0.00  0.00    +0.000 C 
ENDBRANCH  20  24
BRANCH  23  26
ATOM     26  O   UNL     1     -46.381 -13.456 -28.170  0.00  0.00    +0.000 OA
ATOM     27  C   UNL     1     -45.195 -14.231 -28.268  0.00  0.00    +0.000 C 
ENDBRANCH  23  26
ENDBRANCH  17  18
ENDBRANCH  15  17
ENDBRANCH   5  13
BRANCH   7  28
ATOM     28  S   UNL     1     -47.726  -4.447 -31.677  0.00  0.00    +0.000 S 
BRANCH  28  33
ATOM     29  C   UNL     1     -43.274  -0.526 -32.986  0.00  0.00    +0.000 C 
ATOM     30  C   UNL     1     -44.357  -1.492 -32.667  0.00  0.00    +0.000 A 
ATOM     31  C   UNL     1     -44.886  -2.307 -33.672  0.00  0.00    +0.000 A 
ATOM     32  C   UNL     1     -45.908  -3.212 -33.371  0.00  0.00    +0.000 A 
ATOM     33  C   UNL     1     -46.400  -3.307 -32.065  0.00  0.00    +0.000 A 
ATOM     34  C   UNL     1     -45.875  -2.486 -31.062  0.00  0.00    +0.000 A 
ATOM     35  C   UNL     1     -44.852  -1.581 -31.362  0.00  0.00    +0.000 A 
ENDBRANCH  28  33
ENDBRANCH   7  28
TORSDOF 7
ENDMDL
