MODEL 1
REMARK VINA RESULT:      -6.0      0.000      0.000
REMARK  Name = ZINC000014182987 MolPort-009-650-068
REMARK  2 active torsions:
REMARK  status: ('A' for Active; 'I' for Inactive)
REMARK    1  A    between atoms: C_2  and  C_5
REMARK    2  A    between atoms: C_20  and  C_22
REMARK                            x       y       z     vdW  Elec       q    Type
REMARK                         _______ _______ _______ _____ _____    ______ ____
ROOT
ATOM      1  O   UNL     1     -40.616   6.272 -36.222  0.00  0.00    +0.000 OA
ATOM      2  C   UNL     1     -39.368   6.180 -36.362  0.00  0.00    +0.000 C 
ATOM      3  N   UNL     1     -38.781   6.642 -37.586  0.00  0.00    +0.000 N 
ATOM      4  H   UNL     1     -39.267   7.336 -38.087  0.00  0.00    +0.000 HD
ATOM      5  C   UNL     1     -37.546   6.175 -38.137  0.00  0.00    +0.000 A 
ATOM      6  N   UNL     1     -37.306   4.892 -38.483  0.00  0.00    +0.000 NA
ATOM      7  N   UNL     1     -36.103   4.714 -39.025  0.00  0.00    +0.000 NA
ATOM      8  C   UNL     1     -35.385   5.855 -39.123  0.00  0.00    +0.000 A 
ATOM      9  S   UNL     1     -36.253   7.176 -38.523  0.00  0.00    +0.000 S 
ENDROOT
BRANCH   2  10
ATOM     10  C   UNL     1     -38.542   5.672 -35.240  0.00  0.00    +0.000 A 
ATOM     11  C   UNL     1     -37.857   6.594 -34.439  0.00  0.00    +0.000 A 
ATOM     12  C   UNL     1     -37.093   6.155 -33.359  0.00  0.00    +0.000 A 
ATOM     13  O   UNL     1     -36.476   6.989 -32.647  0.00  0.00    +0.000 OA
ATOM     14  N   UNL     1     -37.013   4.830 -33.072  0.00  0.00    +0.000 N 
ATOM     15  C   UNL     1     -37.665   3.899 -33.816  0.00  0.00    +0.000 A 
ATOM     16  C   UNL     1     -37.550   2.545 -33.487  0.00  0.00    +0.000 A 
ATOM     17  C   UNL     1     -38.208   1.578 -34.252  0.00  0.00    +0.000 A 
ATOM     18  C   UNL     1     -38.981   1.962 -35.351  0.00  0.00    +0.000 A 
ATOM     19  C   UNL     1     -39.101   3.313 -35.687  0.00  0.00    +0.000 A 
ATOM     20  C   UNL     1     -38.453   4.297 -34.924  0.00  0.00    +0.000 A 
ATOM     21  H   UNL     1     -36.469   4.536 -32.305  0.00  0.00    +0.000 HD
ENDBRANCH   2  10
BRANCH   8  22
ATOM     22  C   UNL     1     -34.005   5.893 -39.705  0.00  0.00    +0.000 C 
ATOM     23  C   UNL     1     -33.307   4.528 -39.685  0.00  0.00    +0.000 C 
ATOM     24  C   UNL     1     -32.751   4.193 -38.301  0.00  0.00    +0.000 C 
ATOM     25  C   UNL     1     -31.820   5.299 -37.823  0.00  0.00    +0.000 C 
ATOM     26  C   UNL     1     -32.580   6.616 -37.736  0.00  0.00    +0.000 C 
ATOM     27  C   UNL     1     -33.132   7.003 -39.108  0.00  0.00    +0.000 C 
ENDBRANCH   8  22
TORSDOF 2
ENDMDL
MODEL 2
REMARK VINA RESULT:      -5.9     24.676     28.486
REMARK  Name = ZINC000014182987 MolPort-009-650-068
REMARK  2 active torsions:
REMARK  status: ('A' for Active; 'I' for Inactive)
REMARK    1  A    between atoms: C_2  and  C_5
REMARK    2  A    between atoms: C_20  and  C_22
REMARK                            x       y       z     vdW  Elec       q    Type
REMARK                         _______ _______ _______ _____ _____    ______ ____
ROOT
ATOM      1  O   UNL     1     -40.168 -19.037 -25.515  0.00  0.00    +0.000 OA
ATOM      2  C   UNL     1     -41.095 -18.772 -24.705  0.00  0.00    +0.000 C 
ATOM      3  N   UNL     1     -40.780 -18.680 -23.310  0.00  0.00    +0.000 N 
ATOM      4  H   UNL     1     -39.856 -18.442 -23.069  0.00  0.00    +0.000 HD
ATOM      5  C   UNL     1     -41.701 -18.908 -22.239  0.00  0.00    +0.000 A 
ATOM      6  N   UNL     1     -42.356 -20.072 -22.034  0.00  0.00    +0.000 NA
ATOM      7  N   UNL     1     -43.116 -20.057 -20.942  0.00  0.00    +0.000 NA
ATOM      8  C   UNL     1     -43.062 -18.888 -20.265  0.00  0.00    +0.000 A 
ATOM      9  S   UNL     1     -42.024 -17.791 -21.026  0.00  0.00    +0.000 S 
ENDROOT
BRANCH   2  10
ATOM     10  C   UNL     1     -42.457 -18.494 -25.221  0.00  0.00    +0.000 A 
ATOM     11  C   UNL     1     -43.396 -19.534 -25.233  0.00  0.00    +0.000 A 
ATOM     12  C   UNL     1     -44.694 -19.303 -25.686  0.00  0.00    +0.000 A 
ATOM     13  O   UNL     1     -45.531 -20.243 -25.699  0.00  0.00    +0.000 OA
ATOM     14  N   UNL     1     -45.059 -18.066 -26.112  0.00  0.00    +0.000 N 
ATOM     15  C   UNL     1     -44.187 -17.025 -26.113  0.00  0.00    +0.000 A 
ATOM     16  C   UNL     1     -44.605 -15.770 -26.565  0.00  0.00    +0.000 A 
ATOM     17  C   UNL     1     -43.712 -14.696 -26.579  0.00  0.00    +0.000 A 
ATOM     18  C   UNL     1     -42.396 -14.873 -26.144  0.00  0.00    +0.000 A 
ATOM     19  C   UNL     1     -41.970 -16.124 -25.691  0.00  0.00    +0.000 A 
ATOM     20  C   UNL     1     -42.856 -17.212 -25.662  0.00  0.00    +0.000 A 
ATOM     21  H   UNL     1     -45.981 -17.919 -26.428  0.00  0.00    +0.000 HD
ENDBRANCH   2  10
BRANCH   8  22
ATOM     22  C   UNL     1     -43.833 -18.649 -19.003  0.00  0.00    +0.000 C 
ATOM     23  C   UNL     1     -45.052 -19.569 -18.861  0.00  0.00    +0.000 C 
ATOM     24  C   UNL     1     -46.228 -19.090 -19.712  0.00  0.00    +0.000 C 
ATOM     25  C   UNL     1     -46.579 -17.649 -19.368  0.00  0.00    +0.000 C 
ATOM     26  C   UNL     1     -45.383 -16.745 -19.641  0.00  0.00    +0.000 C 
ATOM     27  C   UNL     1     -44.188 -17.172 -18.788  0.00  0.00    +0.000 C 
ENDBRANCH   8  22
TORSDOF 2
ENDMDL
MODEL 3
REMARK VINA RESULT:      -5.8     13.155     16.132
REMARK  Name = ZINC000014182987 MolPort-009-650-068
REMARK  2 active torsions:
REMARK  status: ('A' for Active; 'I' for Inactive)
REMARK    1  A    between atoms: C_2  and  C_5
REMARK    2  A    between atoms: C_20  and  C_22
REMARK                            x       y       z     vdW  Elec       q    Type
REMARK                         _______ _______ _______ _____ _____    ______ ____
ROOT
ATOM      1  O   UNL     1     -47.393  -8.845 -27.887  0.00  0.00    +0.000 OA
ATOM      2  C   UNL     1     -46.781  -7.976 -28.563  0.00  0.00    +0.000 C 
ATOM      3  N   UNL     1     -47.367  -6.674 -28.693  0.00  0.00    +0.000 N 
ATOM      4  H   UNL     1     -47.978  -6.378 -27.980  0.00  0.00    +0.000 HD
ATOM      5  C   UNL     1     -47.134  -5.769 -29.777  0.00  0.00    +0.000 A 
ATOM      6  N   UNL     1     -47.412  -6.045 -31.070  0.00  0.00    +0.000 NA
ATOM      7  N   UNL     1     -47.158  -5.024 -31.886  0.00  0.00    +0.000 NA
ATOM      8  C   UNL     1     -46.689  -3.929 -31.248  0.00  0.00    +0.000 A 
ATOM      9  S   UNL     1     -46.574  -4.197 -29.582  0.00  0.00    +0.000 S 
ENDROOT
BRANCH   2  10
ATOM     10  C   UNL     1     -45.453  -8.298 -29.137  0.00  0.00    +0.000 A 
ATOM     11  C   UNL     1     -45.396  -9.031 -30.329  0.00  0.00    +0.000 A 
ATOM     12  C   UNL     1     -44.166  -9.331 -30.912  0.00  0.00    +0.000 A 
ATOM     13  O   UNL     1     -44.123  -9.994 -31.981  0.00  0.00    +0.000 OA
ATOM     14  N   UNL     1     -43.013  -8.908 -30.331  0.00  0.00    +0.000 N 
ATOM     15  C   UNL     1     -43.018  -8.190 -29.179  0.00  0.00    +0.000 A 
ATOM     16  C   UNL     1     -41.807  -7.780 -28.613  0.00  0.00    +0.000 A 
ATOM     17  C   UNL     1     -41.800  -7.049 -27.422  0.00  0.00    +0.000 A 
ATOM     18  C   UNL     1     -43.004  -6.728 -26.790  0.00  0.00    +0.000 A 
ATOM     19  C   UNL     1     -44.219  -7.134 -27.348  0.00  0.00    +0.000 A 
ATOM     20  C   UNL     1     -44.244  -7.862 -28.548  0.00  0.00    +0.000 A 
ATOM     21  H   UNL     1     -42.152  -9.127 -30.757  0.00  0.00    +0.000 HD
ENDBRANCH   2  10
BRANCH   8  22
ATOM     22  C   UNL     1     -46.341  -2.662 -31.967  0.00  0.00    +0.000 C 
ATOM     23  C   UNL     1     -46.118  -2.867 -33.470  0.00  0.00    +0.000 C 
ATOM     24  C   UNL     1     -44.737  -3.455 -33.765  0.00  0.00    +0.000 C 
ATOM     25  C   UNL     1     -43.649  -2.580 -33.157  0.00  0.00    +0.000 C 
ATOM     26  C   UNL     1     -43.830  -2.501 -31.646  0.00  0.00    +0.000 C 
ATOM     27  C   UNL     1     -45.191  -1.893 -31.306  0.00  0.00    +0.000 C 
ENDBRANCH   8  22
TORSDOF 2
ENDMDL
