MODEL 1
REMARK VINA RESULT:      -6.7      0.000      0.000
REMARK  Name = ZINC000031809867
REMARK  2 active torsions:
REMARK  status: ('A' for Active; 'I' for Inactive)
REMARK    1  A    between atoms: C_7  and  C_24
REMARK    2  A    between atoms: C_28  and  O_29
REMARK                            x       y       z     vdW  Elec       q    Type
REMARK                         _______ _______ _______ _____ _____    ______ ____
ROOT
ATOM      1  C   UNL     1     -42.608  -6.884 -27.459  0.00  0.00    +0.000 C 
ATOM      2  C   UNL     1     -43.051  -6.199 -28.706  0.00  0.00    +0.000 A 
ATOM      3  N   UNL     1     -42.203  -5.773 -29.658  0.00  0.00    +0.000 NA
ATOM      4  N   UNL     1     -42.926  -5.222 -30.620  0.00  0.00    +0.000 N 
ATOM      5  C   UNL     1     -44.240  -5.318 -30.316  0.00  0.00    +0.000 A 
ATOM      6  C   UNL     1     -44.360  -5.930 -29.069  0.00  0.00    +0.000 A 
ATOM      7  C   UNL     1     -45.564  -6.330 -28.264  0.00  0.00    +0.000 C 
ATOM      8  S   UNL     1     -47.008  -5.237 -28.452  0.00  0.00    +0.000 S 
ATOM      9  C   UNL     1     -47.367  -5.852 -30.114  0.00  0.00    +0.000 C 
ATOM     10  C   UNL     1     -46.697  -5.000 -31.126  0.00  0.00    +0.000 C 
ATOM     11  O   UNL     1     -47.412  -4.399 -31.969  0.00  0.00    +0.000 OA
ATOM     12  N   UNL     1     -45.275  -4.868 -31.209  0.00  0.00    +0.000 N 
ATOM     13  H   UNL     1     -44.952  -4.391 -32.007  0.00  0.00    +0.000 HD
ATOM     14  C   UNL     1     -42.340  -4.685 -31.814  0.00  0.00    +0.000 A 
ATOM     15  N   UNL     1     -41.317  -5.347 -32.433  0.00  0.00    +0.000 NA
ATOM     16  C   UNL     1     -40.715  -4.845 -33.560  0.00  0.00    +0.000 A 
ATOM     17  N   UNL     1     -41.118  -3.651 -34.087  0.00  0.00    +0.000 NA
ATOM     18  C   UNL     1     -42.122  -2.986 -33.467  0.00  0.00    +0.000 A 
ATOM     19  N   UNL     1     -42.609  -1.785 -33.800  0.00  0.00    +0.000 N 
ATOM     20  C   UNL     1     -43.537  -1.565 -32.829  0.00  0.00    +0.000 A 
ATOM     21  N   UNL     1     -43.632  -2.572 -31.919  0.00  0.00    +0.000 NA
ATOM     22  C   UNL     1     -42.730  -3.461 -32.360  0.00  0.00    +0.000 A 
ATOM     23  H   UNL     1     -42.359  -1.207 -34.557  0.00  0.00    +0.000 HD
ENDROOT
BRANCH   7  24
ATOM     24  C   UNL     1     -45.900  -7.796 -28.323  0.00  0.00    +0.000 A 
ATOM     25  C   UNL     1     -45.397  -8.565 -29.378  0.00  0.00    +0.000 A 
ATOM     26  C   UNL     1     -45.684  -9.931 -29.453  0.00  0.00    +0.000 A 
ATOM     27  C   UNL     1     -46.472 -10.535 -28.470  0.00  0.00    +0.000 A 
ATOM     28  C   UNL     1     -46.974  -9.774 -27.411  0.00  0.00    +0.000 A 
ATOM     29  C   UNL     1     -46.688  -8.408 -27.336  0.00  0.00    +0.000 A 
BRANCH  28  30
ATOM     30  O   UNL     1     -47.756 -10.374 -26.434  0.00  0.00    +0.000 OA
ATOM     31  H   UNL     1     -48.494  -9.919 -26.080  0.00  0.00    +0.000 HD
ENDBRANCH  28  30
ENDBRANCH   7  24
TORSDOF 2
ENDMDL
MODEL 2
REMARK VINA RESULT:      -6.5      3.105      7.129
REMARK  Name = ZINC000031809867
REMARK  2 active torsions:
REMARK  status: ('A' for Active; 'I' for Inactive)
REMARK    1  A    between atoms: C_7  and  C_24
REMARK    2  A    between atoms: C_28  and  O_29
REMARK                            x       y       z     vdW  Elec       q    Type
REMARK                         _______ _______ _______ _____ _____    ______ ____
ROOT
ATOM      1  C   UNL     1     -42.967  -5.784 -35.001  0.00  0.00    +0.000 C 
ATOM      2  C   UNL     1     -43.761  -6.096 -33.780  0.00  0.00    +0.000 A 
ATOM      3  N   UNL     1     -43.604  -7.223 -33.062  0.00  0.00    +0.000 NA
ATOM      4  N   UNL     1     -44.455  -7.174 -32.051  0.00  0.00    +0.000 N 
ATOM      5  C   UNL     1     -45.140  -6.009 -32.085  0.00  0.00    +0.000 A 
ATOM      6  C   UNL     1     -44.731  -5.291 -33.209  0.00  0.00    +0.000 A 
ATOM      7  C   UNL     1     -45.113  -3.930 -33.718  0.00  0.00    +0.000 C 
ATOM      8  S   UNL     1     -46.836  -3.445 -33.386  0.00  0.00    +0.000 S 
ATOM      9  C   UNL     1     -46.514  -3.180 -31.626  0.00  0.00    +0.000 C 
ATOM     10  C   UNL     1     -46.806  -4.419 -30.865  0.00  0.00    +0.000 C 
ATOM     11  O   UNL     1     -47.696  -4.379 -29.977  0.00  0.00    +0.000 OA
ATOM     12  N   UNL     1     -46.091  -5.641 -31.070  0.00  0.00    +0.000 N 
ATOM     13  H   UNL     1     -46.280  -6.345 -30.409  0.00  0.00    +0.000 HD
ATOM     14  C   UNL     1     -44.535  -8.209 -31.060  0.00  0.00    +0.000 A 
ATOM     15  N   UNL     1     -43.394  -8.783 -30.575  0.00  0.00    +0.000 NA
ATOM     16  C   UNL     1     -43.437  -9.795 -29.649  0.00  0.00    +0.000 A 
ATOM     17  N   UNL     1     -44.635 -10.268 -29.196  0.00  0.00    +0.000 NA
ATOM     18  C   UNL     1     -45.769  -9.710 -29.686  0.00  0.00    +0.000 A 
ATOM     19  N   UNL     1     -47.024 -10.078 -29.407  0.00  0.00    +0.000 N 
ATOM     20  C   UNL     1     -47.756  -9.251 -30.202  0.00  0.00    +0.000 A 
ATOM     21  N   UNL     1     -47.004  -8.403 -30.955  0.00  0.00    +0.000 NA
ATOM     22  C   UNL     1     -45.751  -8.713 -30.595  0.00  0.00    +0.000 A 
ATOM     23  H   UNL     1     -47.340 -10.771 -28.783  0.00  0.00    +0.000 HD
ENDROOT
BRANCH   7  24
ATOM     24  C   UNL     1     -44.110  -2.847 -33.428  0.00  0.00    +0.000 A 
ATOM     25  C   UNL     1     -44.494  -1.509 -33.571  0.00  0.00    +0.000 A 
ATOM     26  C   UNL     1     -43.586  -0.482 -33.298  0.00  0.00    +0.000 A 
ATOM     27  C   UNL     1     -42.289  -0.788 -32.878  0.00  0.00    +0.000 A 
ATOM     28  C   UNL     1     -41.899  -2.122 -32.729  0.00  0.00    +0.000 A 
ATOM     29  C   UNL     1     -42.807  -3.149 -33.001  0.00  0.00    +0.000 A 
BRANCH  28  30
ATOM     30  O   UNL     1     -40.612  -2.426 -32.310  0.00  0.00    +0.000 OA
ATOM     31  H   UNL     1     -40.461  -2.722 -31.434  0.00  0.00    +0.000 HD
ENDBRANCH  28  30
ENDBRANCH   7  24
TORSDOF 2
ENDMDL
MODEL 3
REMARK VINA RESULT:      -6.4      9.879     13.654
REMARK  Name = ZINC000031809867
REMARK  2 active torsions:
REMARK  status: ('A' for Active; 'I' for Inactive)
REMARK    1  A    between atoms: C_7  and  C_24
REMARK    2  A    between atoms: C_28  and  O_29
REMARK                            x       y       z     vdW  Elec       q    Type
REMARK                         _______ _______ _______ _____ _____    ______ ____
ROOT
ATOM      1  C   UNL     1     -43.555 -12.355 -24.054  0.00  0.00    +0.000 C 
ATOM      2  C   UNL     1     -44.189 -13.612 -23.566  0.00  0.00    +0.000 A 
ATOM      3  N   UNL     1     -44.733 -13.740 -22.342  0.00  0.00    +0.000 NA
ATOM      4  N   UNL     1     -45.208 -14.971 -22.244  0.00  0.00    +0.000 N 
ATOM      5  C   UNL     1     -45.009 -15.633 -23.405  0.00  0.00    +0.000 A 
ATOM      6  C   UNL     1     -44.330 -14.788 -24.282  0.00  0.00    +0.000 A 
ATOM      7  C   UNL     1     -43.891 -14.972 -25.708  0.00  0.00    +0.000 C 
ATOM      8  S   UNL     1     -43.419 -16.673 -26.150  0.00  0.00    +0.000 S 
ATOM      9  C   UNL     1     -45.135 -17.244 -26.142  0.00  0.00    +0.000 C 
ATOM     10  C   UNL     1     -45.486 -17.780 -24.805  0.00  0.00    +0.000 C 
ATOM     11  O   UNL     1     -45.834 -18.985 -24.716  0.00  0.00    +0.000 OA
ATOM     12  N   UNL     1     -45.483 -16.974 -23.622  0.00  0.00    +0.000 N 
ATOM     13  H   UNL     1     -45.869 -17.408 -22.828  0.00  0.00    +0.000 HD
ATOM     14  C   UNL     1     -45.887 -15.444 -21.071  0.00  0.00    +0.000 A 
ATOM     15  N   UNL     1     -46.777 -14.635 -20.421  0.00  0.00    +0.000 NA
ATOM     16  C   UNL     1     -47.419 -15.045 -19.281  0.00  0.00    +0.000 A 
ATOM     17  N   UNL     1     -47.173 -16.281 -18.753  0.00  0.00    +0.000 NA
ATOM     18  C   UNL     1     -46.281 -17.079 -19.388  0.00  0.00    +0.000 A 
ATOM     19  N   UNL     1     -45.871 -18.289 -18.992  0.00  0.00    +0.000 N 
ATOM     20  C   UNL     1     -44.944 -18.609 -19.935  0.00  0.00    +0.000 A 
ATOM     21  N   UNL     1     -44.767 -17.646 -20.882  0.00  0.00    +0.000 NA
ATOM     22  C   UNL     1     -45.638 -16.698 -20.511  0.00  0.00    +0.000 A 
ATOM     23  H   UNL     1     -46.165 -18.816 -18.214  0.00  0.00    +0.000 HD
ENDROOT
BRANCH   7  24
ATOM     24  C   UNL     1     -44.772 -14.301 -26.727  0.00  0.00    +0.000 A 
ATOM     25  C   UNL     1     -44.499 -14.484 -28.087  0.00  0.00    +0.000 A 
ATOM     26  C   UNL     1     -45.306 -13.881 -29.056  0.00  0.00    +0.000 A 
ATOM     27  C   UNL     1     -46.394 -13.094 -28.668  0.00  0.00    +0.000 A 
ATOM     28  C   UNL     1     -46.675 -12.910 -27.312  0.00  0.00    +0.000 A 
ATOM     29  C   UNL     1     -45.868 -13.512 -26.344  0.00  0.00    +0.000 A 
BRANCH  28  30
ATOM     30  O   UNL     1     -47.756 -12.129 -26.927  0.00  0.00    +0.000 OA
ATOM     31  H   UNL     1     -48.630 -12.447 -27.045  0.00  0.00    +0.000 HD
ENDBRANCH  28  30
ENDBRANCH   7  24
TORSDOF 2
ENDMDL
