MODEL 1
REMARK VINA RESULT:      -6.9      0.000      0.000
REMARK  Name = ZINC000031808027
REMARK  1 active torsions:
REMARK  status: ('A' for Active; 'I' for Inactive)
REMARK    1  A    between atoms: C_7  and  C_24
REMARK                            x       y       z     vdW  Elec       q    Type
REMARK                         _______ _______ _______ _____ _____    ______ ____
ROOT
ATOM      1  C   UNL     1     -47.403  -4.470 -26.215  0.00  0.00    +0.000 C 
ATOM      2  C   UNL     1     -46.937  -4.719 -27.608  0.00  0.00    +0.000 A 
ATOM      3  N   UNL     1     -46.787  -3.747 -28.524  0.00  0.00    +0.000 NA
ATOM      4  N   UNL     1     -46.360  -4.312 -29.641  0.00  0.00    +0.000 N 
ATOM      5  C   UNL     1     -46.199  -5.642 -29.449  0.00  0.00    +0.000 A 
ATOM      6  C   UNL     1     -46.584  -5.946 -28.145  0.00  0.00    +0.000 A 
ATOM      7  C   UNL     1     -46.585  -7.239 -27.376  0.00  0.00    +0.000 C 
ATOM      8  S   UNL     1     -46.862  -8.737 -28.373  0.00  0.00    +0.000 S 
ATOM      9  C   UNL     1     -45.227  -8.649 -29.140  0.00  0.00    +0.000 C 
ATOM     10  C   UNL     1     -45.306  -7.891 -30.412  0.00  0.00    +0.000 C 
ATOM     11  O   UNL     1     -44.996  -8.481 -31.479  0.00  0.00    +0.000 OA
ATOM     12  N   UNL     1     -45.680  -6.512 -30.468  0.00  0.00    +0.000 N 
ATOM     13  H   UNL     1     -45.564  -6.090 -31.351  0.00  0.00    +0.000 HD
ATOM     14  C   UNL     1     -46.064  -3.556 -30.824  0.00  0.00    +0.000 A 
ATOM     15  N   UNL     1     -45.495  -2.317 -30.722  0.00  0.00    +0.000 NA
ATOM     16  C   UNL     1     -45.227  -1.557 -31.830  0.00  0.00    +0.000 A 
ATOM     17  N   UNL     1     -45.539  -2.018 -33.078  0.00  0.00    +0.000 NA
ATOM     18  C   UNL     1     -46.116  -3.239 -33.182  0.00  0.00    +0.000 A 
ATOM     19  N   UNL     1     -46.542  -3.828 -34.306  0.00  0.00    +0.000 N 
ATOM     20  C   UNL     1     -47.087  -4.985 -33.842  0.00  0.00    +0.000 A 
ATOM     21  N   UNL     1     -47.018  -5.124 -32.490  0.00  0.00    +0.000 NA
ATOM     22  C   UNL     1     -46.388  -4.005 -32.106  0.00  0.00    +0.000 A 
ATOM     23  H   UNL     1     -46.476  -3.505 -35.235  0.00  0.00    +0.000 HD
ENDROOT
BRANCH   7  24
ATOM     24  C   UNL     1     -45.474  -7.364 -26.366  0.00  0.00    +0.000 A 
ATOM     25  C   UNL     1     -44.159  -7.008 -26.706  0.00  0.00    +0.000 A 
ATOM     26  C   UNL     1     -43.129  -7.121 -25.770  0.00  0.00    +0.000 A 
ATOM     27  C   UNL     1     -43.403  -7.588 -24.485  0.00  0.00    +0.000 A 
ATOM     28  C   UNL     1     -44.708  -7.943 -24.134  0.00  0.00    +0.000 A 
ATOM     29  C   UNL     1     -45.745  -7.833 -25.066  0.00  0.00    +0.000 A 
ATOM     30 CL   UNL     1     -47.369  -8.285 -24.571  0.00  0.00    +0.000 Cl
ENDBRANCH   7  24
TORSDOF 1
ENDMDL
MODEL 2
REMARK VINA RESULT:      -6.6      4.871      7.069
REMARK  Name = ZINC000031808027
REMARK  1 active torsions:
REMARK  status: ('A' for Active; 'I' for Inactive)
REMARK    1  A    between atoms: C_7  and  C_24
REMARK                            x       y       z     vdW  Elec       q    Type
REMARK                         _______ _______ _______ _____ _____    ______ ____
ROOT
ATOM      1  C   UNL     1     -47.156  -3.422 -33.712  0.00  0.00    +0.000 C 
ATOM      2  C   UNL     1     -46.480  -4.748 -33.767  0.00  0.00    +0.000 A 
ATOM      3  N   UNL     1     -46.789  -5.700 -34.665  0.00  0.00    +0.000 NA
ATOM      4  N   UNL     1     -46.003  -6.738 -34.433  0.00  0.00    +0.000 N 
ATOM      5  C   UNL     1     -45.161  -6.457 -33.412  0.00  0.00    +0.000 A 
ATOM      6  C   UNL     1     -45.456  -5.179 -32.941  0.00  0.00    +0.000 A 
ATOM      7  C   UNL     1     -44.832  -4.342 -31.858  0.00  0.00    +0.000 C 
ATOM      8  S   UNL     1     -44.131  -5.274 -30.460  0.00  0.00    +0.000 S 
ATOM      9  C   UNL     1     -42.740  -5.887 -31.438  0.00  0.00    +0.000 C 
ATOM     10  C   UNL     1     -43.081  -7.202 -32.032  0.00  0.00    +0.000 C 
ATOM     11  O   UNL     1     -42.384  -8.200 -31.716  0.00  0.00    +0.000 OA
ATOM     12  N   UNL     1     -44.142  -7.372 -32.977  0.00  0.00    +0.000 N 
ATOM     13  H   UNL     1     -44.180  -8.262 -33.397  0.00  0.00    +0.000 HD
ATOM     14  C   UNL     1     -46.042  -7.930 -35.232  0.00  0.00    +0.000 A 
ATOM     15  N   UNL     1     -46.262  -7.845 -36.579  0.00  0.00    +0.000 NA
ATOM     16  C   UNL     1     -46.334  -8.965 -37.366  0.00  0.00    +0.000 A 
ATOM     17  N   UNL     1     -46.204 -10.208 -36.815  0.00  0.00    +0.000 NA
ATOM     18  C   UNL     1     -46.000 -10.296 -35.479  0.00  0.00    +0.000 A 
ATOM     19  N   UNL     1     -45.907 -11.420 -34.758  0.00  0.00    +0.000 N 
ATOM     20  C   UNL     1     -45.776 -10.944 -33.490  0.00  0.00    +0.000 A 
ATOM     21  N   UNL     1     -45.791  -9.586 -33.406  0.00  0.00    +0.000 NA
ATOM     22  C   UNL     1     -45.924  -9.208 -34.685  0.00  0.00    +0.000 A 
ATOM     23  H   UNL     1     -45.928 -12.355 -35.067  0.00  0.00    +0.000 HD
ENDROOT
BRANCH   7  24
ATOM     24  C   UNL     1     -43.954  -3.226 -32.361  0.00  0.00    +0.000 A 
ATOM     25  C   UNL     1     -42.909  -3.494 -33.260  0.00  0.00    +0.000 A 
ATOM     26  C   UNL     1     -42.095  -2.461 -33.730  0.00  0.00    +0.000 A 
ATOM     27  C   UNL     1     -42.319  -1.150 -33.308  0.00  0.00    +0.000 A 
ATOM     28  C   UNL     1     -43.357  -0.871 -32.416  0.00  0.00    +0.000 A 
ATOM     29  C   UNL     1     -44.176  -1.901 -31.941  0.00  0.00    +0.000 A 
ATOM     30 CL   UNL     1     -45.473  -1.495 -30.826  0.00  0.00    +0.000 Cl
ENDBRANCH   7  24
TORSDOF 1
ENDMDL
MODEL 3
REMARK VINA RESULT:      -6.5      2.894      3.981
REMARK  Name = ZINC000031808027
REMARK  1 active torsions:
REMARK  status: ('A' for Active; 'I' for Inactive)
REMARK    1  A    between atoms: C_7  and  C_24
REMARK                            x       y       z     vdW  Elec       q    Type
REMARK                         _______ _______ _______ _____ _____    ______ ____
ROOT
ATOM      1  C   UNL     1     -42.623  -6.760 -27.484  0.00  0.00    +0.000 C 
ATOM      2  C   UNL     1     -43.101  -6.097 -28.729  0.00  0.00    +0.000 A 
ATOM      3  N   UNL     1     -42.284  -5.730 -29.732  0.00  0.00    +0.000 NA
ATOM      4  N   UNL     1     -43.031  -5.177 -30.673  0.00  0.00    +0.000 N 
ATOM      5  C   UNL     1     -44.332  -5.211 -30.305  0.00  0.00    +0.000 A 
ATOM      6  C   UNL     1     -44.414  -5.784 -29.037  0.00  0.00    +0.000 A 
ATOM      7  C   UNL     1     -45.590  -6.104 -28.156  0.00  0.00    +0.000 C 
ATOM      8  S   UNL     1     -47.016  -4.985 -28.324  0.00  0.00    +0.000 S 
ATOM      9  C   UNL     1     -47.460  -5.635 -29.952  0.00  0.00    +0.000 C 
ATOM     10  C   UNL     1     -46.810  -4.827 -31.012  0.00  0.00    +0.000 C 
ATOM     11  O   UNL     1     -47.542  -4.222 -31.836  0.00  0.00    +0.000 OA
ATOM     12  N   UNL     1     -45.390  -4.742 -31.158  0.00  0.00    +0.000 N 
ATOM     13  H   UNL     1     -45.087  -4.287 -31.978  0.00  0.00    +0.000 HD
ATOM     14  C   UNL     1     -42.484  -4.696 -31.910  0.00  0.00    +0.000 A 
ATOM     15  N   UNL     1     -41.456  -5.368 -32.512  0.00  0.00    +0.000 NA
ATOM     16  C   UNL     1     -40.892  -4.920 -33.678  0.00  0.00    +0.000 A 
ATOM     17  N   UNL     1     -41.336  -3.769 -34.265  0.00  0.00    +0.000 NA
ATOM     18  C   UNL     1     -42.345  -3.094 -33.664  0.00  0.00    +0.000 A 
ATOM     19  N   UNL     1     -42.869  -1.927 -34.056  0.00  0.00    +0.000 N 
ATOM     20  C   UNL     1     -43.783  -1.673 -33.079  0.00  0.00    +0.000 A 
ATOM     21  N   UNL     1     -43.833  -2.627 -32.110  0.00  0.00    +0.000 NA
ATOM     22  C   UNL     1     -42.917  -3.517 -32.517  0.00  0.00    +0.000 A 
ATOM     23  H   UNL     1     -42.651  -1.388 -34.851  0.00  0.00    +0.000 HD
ENDROOT
BRANCH   7  24
ATOM     24  C   UNL     1     -45.952  -7.566 -28.107  0.00  0.00    +0.000 A 
ATOM     25  C   UNL     1     -45.784  -8.379 -29.239  0.00  0.00    +0.000 A 
ATOM     26  C   UNL     1     -46.116  -9.735 -29.195  0.00  0.00    +0.000 A 
ATOM     27  C   UNL     1     -46.618 -10.291 -28.018  0.00  0.00    +0.000 A 
ATOM     28  C   UNL     1     -46.787  -9.493 -26.885  0.00  0.00    +0.000 A 
ATOM     29  C   UNL     1     -46.457  -8.134 -26.922  0.00  0.00    +0.000 A 
ATOM     30 CL   UNL     1     -46.682  -7.176 -25.465  0.00  0.00    +0.000 Cl
ENDBRANCH   7  24
TORSDOF 1
ENDMDL
