MODEL 1
REMARK VINA RESULT:      -7.0      0.000      0.000
REMARK  Name = ZINC000031810754
REMARK  1 active torsions:
REMARK  status: ('A' for Active; 'I' for Inactive)
REMARK    1  A    between atoms: C_7  and  C_24
REMARK                            x       y       z     vdW  Elec       q    Type
REMARK                         _______ _______ _______ _____ _____    ______ ____
ROOT
ATOM      1  C   UNL     1     -42.970  -5.764 -34.960  0.00  0.00    +0.000 C 
ATOM      2  C   UNL     1     -43.770  -6.175 -33.774  0.00  0.00    +0.000 A 
ATOM      3  N   UNL     1     -43.605  -7.349 -33.140  0.00  0.00    +0.000 NA
ATOM      4  N   UNL     1     -44.464  -7.386 -32.134  0.00  0.00    +0.000 N 
ATOM      5  C   UNL     1     -45.165  -6.230 -32.090  0.00  0.00    +0.000 A 
ATOM      6  C   UNL     1     -44.756  -5.426 -33.152  0.00  0.00    +0.000 A 
ATOM      7  C   UNL     1     -45.152  -4.036 -33.565  0.00  0.00    +0.000 C 
ATOM      8  S   UNL     1     -46.883  -3.598 -33.213  0.00  0.00    +0.000 S 
ATOM      9  C   UNL     1     -46.578  -3.459 -31.436  0.00  0.00    +0.000 C 
ATOM     10  C   UNL     1     -46.859  -4.753 -30.770  0.00  0.00    +0.000 C 
ATOM     11  O   UNL     1     -47.757  -4.790 -29.889  0.00  0.00    +0.000 OA
ATOM     12  N   UNL     1     -46.129  -5.949 -31.059  0.00  0.00    +0.000 N 
ATOM     13  H   UNL     1     -46.315  -6.702 -30.454  0.00  0.00    +0.000 HD
ATOM     14  C   UNL     1     -44.540  -8.491 -31.223  0.00  0.00    +0.000 A 
ATOM     15  N   UNL     1     -43.398  -9.133 -30.828  0.00  0.00    +0.000 NA
ATOM     16  C   UNL     1     -43.438 -10.209 -29.981  0.00  0.00    +0.000 A 
ATOM     17  N   UNL     1     -44.633 -10.684 -29.517  0.00  0.00    +0.000 NA
ATOM     18  C   UNL     1     -45.765 -10.059 -29.918  0.00  0.00    +0.000 A 
ATOM     19  N   UNL     1     -47.021 -10.413 -29.617  0.00  0.00    +0.000 N 
ATOM     20  C   UNL     1     -47.756  -9.507 -30.318  0.00  0.00    +0.000 A 
ATOM     21  N   UNL     1     -47.007  -8.625 -31.034  0.00  0.00    +0.000 NA
ATOM     22  C   UNL     1     -45.751  -8.997 -30.749  0.00  0.00    +0.000 A 
ATOM     23  H   UNL     1     -47.333 -11.143 -29.036  0.00  0.00    +0.000 HD
ENDROOT
BRANCH   7  24
ATOM     24  C   UNL     1     -44.166  -2.964 -33.191  0.00  0.00    +0.000 A 
ATOM     25  C   UNL     1     -44.399  -1.649 -33.612  0.00  0.00    +0.000 A 
ATOM     26  C   UNL     1     -43.504  -0.630 -33.271  0.00  0.00    +0.000 A 
ATOM     27  C   UNL     1     -42.374  -0.921 -32.503  0.00  0.00    +0.000 A 
ATOM     28  F   UNL     1     -41.508   0.067 -32.173  0.00  0.00    +0.000 F 
ATOM     29  C   UNL     1     -42.136  -2.230 -32.075  0.00  0.00    +0.000 A 
ATOM     30  C   UNL     1     -43.030  -3.249 -32.417  0.00  0.00    +0.000 A 
ENDBRANCH   7  24
TORSDOF 1
ENDMDL
MODEL 2
REMARK VINA RESULT:      -6.8      2.590      3.088
REMARK  Name = ZINC000031810754
REMARK  1 active torsions:
REMARK  status: ('A' for Active; 'I' for Inactive)
REMARK    1  A    between atoms: C_7  and  C_24
REMARK                            x       y       z     vdW  Elec       q    Type
REMARK                         _______ _______ _______ _____ _____    ______ ____
ROOT
ATOM      1  C   UNL     1     -47.400  -4.446 -34.431  0.00  0.00    +0.000 C 
ATOM      2  C   UNL     1     -46.692  -5.597 -33.805  0.00  0.00    +0.000 A 
ATOM      3  N   UNL     1     -46.606  -6.812 -34.375  0.00  0.00    +0.000 NA
ATOM      4  N   UNL     1     -45.909  -7.588 -33.560  0.00  0.00    +0.000 N 
ATOM      5  C   UNL     1     -45.512  -6.876 -32.480  0.00  0.00    +0.000 A 
ATOM      6  C   UNL     1     -46.019  -5.583 -32.595  0.00  0.00    +0.000 A 
ATOM      7  C   UNL     1     -45.863  -4.367 -31.724  0.00  0.00    +0.000 C 
ATOM      8  S   UNL     1     -45.710  -4.716 -29.945  0.00  0.00    +0.000 S 
ATOM      9  C   UNL     1     -44.025  -5.347 -30.124  0.00  0.00    +0.000 C 
ATOM     10  C   UNL     1     -44.052  -6.816 -30.322  0.00  0.00    +0.000 C 
ATOM     11  O   UNL     1     -43.472  -7.544 -29.476  0.00  0.00    +0.000 OA
ATOM     12  N   UNL     1     -44.676  -7.434 -31.451  0.00  0.00    +0.000 N 
ATOM     13  H   UNL     1     -44.505  -8.400 -31.539  0.00  0.00    +0.000 HD
ATOM     14  C   UNL     1     -45.597  -8.952 -33.873  0.00  0.00    +0.000 A 
ATOM     15  N   UNL     1     -45.298  -9.310 -35.158  0.00  0.00    +0.000 NA
ATOM     16  C   UNL     1     -45.024 -10.610 -35.495  0.00  0.00    +0.000 A 
ATOM     17  N   UNL     1     -45.058 -11.595 -34.548  0.00  0.00    +0.000 NA
ATOM     18  C   UNL     1     -45.368 -11.245 -33.276  0.00  0.00    +0.000 A 
ATOM     19  N   UNL     1     -45.506 -12.071 -32.233  0.00  0.00    +0.000 N 
ATOM     20  C   UNL     1     -45.880 -11.224 -31.235  0.00  0.00    +0.000 A 
ATOM     21  N   UNL     1     -45.981  -9.924 -31.625  0.00  0.00    +0.000 NA
ATOM     22  C   UNL     1     -45.639  -9.973 -32.921  0.00  0.00    +0.000 A 
ATOM     23  H   UNL     1     -45.371 -13.045 -32.195  0.00  0.00    +0.000 HD
ENDROOT
BRANCH   7  24
ATOM     24  C   UNL     1     -44.876  -3.354 -32.232  0.00  0.00    +0.000 A 
ATOM     25  C   UNL     1     -44.928  -2.046 -31.735  0.00  0.00    +0.000 A 
ATOM     26  C   UNL     1     -44.016  -1.084 -32.181  0.00  0.00    +0.000 A 
ATOM     27  C   UNL     1     -43.045  -1.427 -33.125  0.00  0.00    +0.000 A 
ATOM     28  F   UNL     1     -42.162  -0.495 -33.557  0.00  0.00    +0.000 F 
ATOM     29  C   UNL     1     -42.983  -2.732 -33.624  0.00  0.00    +0.000 A 
ATOM     30  C   UNL     1     -43.896  -3.693 -33.178  0.00  0.00    +0.000 A 
ENDBRANCH   7  24
TORSDOF 1
ENDMDL
MODEL 3
REMARK VINA RESULT:      -6.7      3.887      7.147
REMARK  Name = ZINC000031810754
REMARK  1 active torsions:
REMARK  status: ('A' for Active; 'I' for Inactive)
REMARK    1  A    between atoms: C_7  and  C_24
REMARK                            x       y       z     vdW  Elec       q    Type
REMARK                         _______ _______ _______ _____ _____    ______ ____
ROOT
ATOM      1  C   UNL     1     -42.472  -6.800 -27.571  0.00  0.00    +0.000 C 
ATOM      2  C   UNL     1     -42.991  -6.141 -28.800  0.00  0.00    +0.000 A 
ATOM      3  N   UNL     1     -42.206  -5.757 -29.823  0.00  0.00    +0.000 NA
ATOM      4  N   UNL     1     -42.986  -5.218 -30.746  0.00  0.00    +0.000 N 
ATOM      5  C   UNL     1     -44.277  -5.277 -30.345  0.00  0.00    +0.000 A 
ATOM      6  C   UNL     1     -44.317  -5.852 -29.076  0.00  0.00    +0.000 A 
ATOM      7  C   UNL     1     -45.467  -6.203 -28.174  0.00  0.00    +0.000 C 
ATOM      8  S   UNL     1     -46.898  -5.085 -28.289  0.00  0.00    +0.000 S 
ATOM      9  C   UNL     1     -47.390  -5.739 -29.902  0.00  0.00    +0.000 C 
ATOM     10  C   UNL     1     -46.779  -4.930 -30.984  0.00  0.00    +0.000 C 
ATOM     11  O   UNL     1     -47.542  -4.337 -31.790  0.00  0.00    +0.000 OA
ATOM     12  N   UNL     1     -45.365  -4.829 -31.172  0.00  0.00    +0.000 N 
ATOM     13  H   UNL     1     -45.090  -4.380 -32.005  0.00  0.00    +0.000 HD
ATOM     14  C   UNL     1     -42.479  -4.726 -31.994  0.00  0.00    +0.000 A 
ATOM     15  N   UNL     1     -41.465  -5.388 -32.630  0.00  0.00    +0.000 NA
ATOM     16  C   UNL     1     -40.938  -4.929 -33.809  0.00  0.00    +0.000 A 
ATOM     17  N   UNL     1     -41.407  -3.777 -34.377  0.00  0.00    +0.000 NA
ATOM     18  C   UNL     1     -42.401  -3.113 -33.742  0.00  0.00    +0.000 A 
ATOM     19  N   UNL     1     -42.945  -1.947 -34.112  0.00  0.00    +0.000 N 
ATOM     20  C   UNL     1     -43.830  -1.705 -33.107  0.00  0.00    +0.000 A 
ATOM     21  N   UNL     1     -43.845  -2.664 -32.142  0.00  0.00    +0.000 NA
ATOM     22  C   UNL     1     -42.936  -3.546 -32.582  0.00  0.00    +0.000 A 
ATOM     23  H   UNL     1     -42.753  -1.403 -34.909  0.00  0.00    +0.000 HD
ENDROOT
BRANCH   7  24
ATOM     24  C   UNL     1     -45.834  -7.661 -28.162  0.00  0.00    +0.000 A 
ATOM     25  C   UNL     1     -46.610  -8.158 -27.108  0.00  0.00    +0.000 A 
ATOM     26  C   UNL     1     -46.976  -9.508 -27.076  0.00  0.00    +0.000 A 
ATOM     27  C   UNL     1     -46.569 -10.366 -28.101  0.00  0.00    +0.000 A 
ATOM     28  F   UNL     1     -46.924 -11.673 -28.069  0.00  0.00    +0.000 F 
ATOM     29  C   UNL     1     -45.798  -9.877 -29.159  0.00  0.00    +0.000 A 
ATOM     30  C   UNL     1     -45.432  -8.528 -29.190  0.00  0.00    +0.000 A 
ENDBRANCH   7  24
TORSDOF 1
ENDMDL
