MODEL 1
REMARK VINA RESULT:      -8.1      0.000      0.000
REMARK  Name = ZINC000257179241
REMARK  3 active torsions:
REMARK  status: ('A' for Active; 'I' for Inactive)
REMARK    1  A    between atoms: C_1  and  C_20
REMARK    2  A    between atoms: C_7  and  C_22
REMARK    3  A    between atoms: C_24  and  C_27
REMARK                            x       y       z     vdW  Elec       q    Type
REMARK                         _______ _______ _______ _____ _____    ______ ____
ROOT
ATOM      1  C   UNL     1     -46.473  -4.382 -31.529  0.00  0.00    +0.000 C 
ATOM      2  O   UNL     1     -47.659  -4.263 -31.119  0.00  0.00    +0.000 OA
ATOM      3  N   UNL     1     -45.911  -5.703 -31.693  0.00  0.00    +0.000 N 
ATOM      4  C   UNL     1     -46.790  -6.859 -31.848  0.00  0.00    +0.000 C 
ATOM      5  C   UNL     1     -47.492  -7.212 -30.540  0.00  0.00    +0.000 C 
ATOM      6  C   UNL     1     -46.634  -8.130 -29.681  0.00  0.00    +0.000 C 
ATOM      7  C   UNL     1     -45.569  -7.338 -28.937  0.00  0.00    +0.000 C 
ATOM      8  C   UNL     1     -44.363  -8.205 -28.610  0.00  0.00    +0.000 C 
ATOM      9  C   UNL     1     -43.592  -8.549 -29.879  0.00  0.00    +0.000 C 
ATOM     10  N   UNL     1     -42.427  -7.686 -30.047  0.00  0.00    +0.000 N 
ATOM     11  C   UNL     1     -42.477  -6.297 -30.399  0.00  0.00    +0.000 C 
ATOM     12  O   UNL     1     -41.401  -5.677 -30.606  0.00  0.00    +0.000 OA
ATOM     13  C   UNL     1     -43.769  -5.565 -30.527  0.00  0.00    +0.000 C 
ATOM     14  C   UNL     1     -44.477  -5.939 -31.819  0.00  0.00    +0.000 C 
ATOM     15  H   UNL     1     -41.540  -8.088 -29.909  0.00  0.00    +0.000 HD
ENDROOT
BRANCH   1  20
ATOM     16  C   UNL     1     -43.424  -0.506 -33.666  0.00  0.00    +0.000 C 
ATOM     17  C   UNL     1     -44.285  -1.371 -32.819  0.00  0.00    +0.000 A 
ATOM     18  C   UNL     1     -44.706  -1.065 -31.534  0.00  0.00    +0.000 A 
ATOM     19  C   UNL     1     -45.507  -2.071 -30.974  0.00  0.00    +0.000 A 
ATOM     20  C   UNL     1     -45.712  -3.151 -31.829  0.00  0.00    +0.000 A 
ATOM     21  S   UNL     1     -44.887  -2.870 -33.269  0.00  0.00    +0.000 S 
ENDBRANCH   1  20
BRANCH   7  22
ATOM     22  C   UNL     1     -46.129  -6.720 -27.701  0.00  0.00    +0.000 A 
ATOM     23  N   UNL     1     -46.192  -5.390 -27.500  0.00  0.00    +0.000 NA
ATOM     24  C   UNL     1     -46.766  -5.336 -26.279  0.00  0.00    +0.000 A 
ATOM     25  N   UNL     1     -47.032  -6.559 -25.778  0.00  0.00    +0.000 NA
ATOM     26  O   UNL     1     -46.623  -7.389 -26.689  0.00  0.00    +0.000 OA
BRANCH  24  27
ATOM     27  C   UNL     1     -47.072  -4.079 -25.578  0.00  0.00    +0.000 A 
ATOM     28  C   UNL     1     -47.178  -4.055 -24.181  0.00  0.00    +0.000 A 
ATOM     29  C   UNL     1     -47.470  -2.860 -23.516  0.00  0.00    +0.000 A 
ATOM     30  C   UNL     1     -47.657  -1.682 -24.244  0.00  0.00    +0.000 A 
ATOM     31  C   UNL     1     -47.553  -1.699 -25.639  0.00  0.00    +0.000 A 
ATOM     32  C   UNL     1     -47.261  -2.893 -26.303  0.00  0.00    +0.000 A 
ENDBRANCH  24  27
ENDBRANCH   7  22
TORSDOF 3
ENDMDL
MODEL 2
REMARK VINA RESULT:      -7.2      1.871      2.320
REMARK  Name = ZINC000257179241
REMARK  3 active torsions:
REMARK  status: ('A' for Active; 'I' for Inactive)
REMARK    1  A    between atoms: C_1  and  C_20
REMARK    2  A    between atoms: C_7  and  C_22
REMARK    3  A    between atoms: C_24  and  C_27
REMARK                            x       y       z     vdW  Elec       q    Type
REMARK                         _______ _______ _______ _____ _____    ______ ____
ROOT
ATOM      1  C   UNL     1     -45.305  -5.590 -32.537  0.00  0.00    +0.000 C 
ATOM      2  O   UNL     1     -46.390  -4.960 -32.659  0.00  0.00    +0.000 OA
ATOM      3  N   UNL     1     -45.323  -6.939 -32.019  0.00  0.00    +0.000 N 
ATOM      4  C   UNL     1     -46.551  -7.729 -32.076  0.00  0.00    +0.000 C 
ATOM      5  C   UNL     1     -47.592  -7.225 -31.081  0.00  0.00    +0.000 C 
ATOM      6  C   UNL     1     -47.394  -7.852 -29.709  0.00  0.00    +0.000 C 
ATOM      7  C   UNL     1     -46.277  -7.153 -28.948  0.00  0.00    +0.000 C 
ATOM      8  C   UNL     1     -45.639  -8.081 -27.926  0.00  0.00    +0.000 C 
ATOM      9  C   UNL     1     -44.836  -9.173 -28.622  0.00  0.00    +0.000 C 
ATOM     10  N   UNL     1     -43.411  -8.860 -28.638  0.00  0.00    +0.000 N 
ATOM     11  C   UNL     1     -42.803  -7.838 -29.439  0.00  0.00    +0.000 C 
ATOM     12  O   UNL     1     -41.549  -7.721 -29.438  0.00  0.00    +0.000 OA
ATOM     13  C   UNL     1     -43.614  -6.908 -30.274  0.00  0.00    +0.000 C 
ATOM     14  C   UNL     1     -44.127  -7.609 -31.522  0.00  0.00    +0.000 C 
ATOM     15  H   UNL     1     -42.823  -9.391 -28.056  0.00  0.00    +0.000 HD
ENDROOT
BRANCH   1  20
ATOM     16  C   UNL     1     -41.011  -2.396 -33.041  0.00  0.00    +0.000 C 
ATOM     17  C   UNL     1     -42.081  -3.417 -33.177  0.00  0.00    +0.000 A 
ATOM     18  C   UNL     1     -42.184  -4.333 -34.213  0.00  0.00    +0.000 A 
ATOM     19  C   UNL     1     -43.300  -5.172 -34.083  0.00  0.00    +0.000 A 
ATOM     20  C   UNL     1     -44.056  -4.912 -32.942  0.00  0.00    +0.000 A 
ATOM     21  S   UNL     1     -43.354  -3.630 -32.106  0.00  0.00    +0.000 S 
ENDBRANCH   1  20
BRANCH   7  22
ATOM     22  C   UNL     1     -46.773  -5.907 -28.297  0.00  0.00    +0.000 A 
ATOM     23  N   UNL     1     -46.563  -5.613 -27.000  0.00  0.00    +0.000 NA
ATOM     24  C   UNL     1     -47.179  -4.417 -26.898  0.00  0.00    +0.000 A 
ATOM     25  N   UNL     1     -47.726  -4.015 -28.063  0.00  0.00    +0.000 NA
ATOM     26  O   UNL     1     -47.452  -4.966 -28.905  0.00  0.00    +0.000 OA
BRANCH  24  27
ATOM     27  C   UNL     1     -47.241  -3.636 -25.653  0.00  0.00    +0.000 A 
ATOM     28  C   UNL     1     -47.372  -2.241 -25.697  0.00  0.00    +0.000 A 
ATOM     29  C   UNL     1     -47.431  -1.499 -24.513  0.00  0.00    +0.000 A 
ATOM     30  C   UNL     1     -47.357  -2.149 -23.277  0.00  0.00    +0.000 A 
ATOM     31  C   UNL     1     -47.226  -3.540 -23.226  0.00  0.00    +0.000 A 
ATOM     32  C   UNL     1     -47.169  -4.281 -24.410  0.00  0.00    +0.000 A 
ENDBRANCH  24  27
ENDBRANCH   7  22
TORSDOF 3
ENDMDL
MODEL 3
REMARK VINA RESULT:      -7.2      3.718      6.707
REMARK  Name = ZINC000257179241
REMARK  3 active torsions:
REMARK  status: ('A' for Active; 'I' for Inactive)
REMARK    1  A    between atoms: C_1  and  C_20
REMARK    2  A    between atoms: C_7  and  C_22
REMARK    3  A    between atoms: C_24  and  C_27
REMARK                            x       y       z     vdW  Elec       q    Type
REMARK                         _______ _______ _______ _____ _____    ______ ____
ROOT
ATOM      1  C   UNL     1     -43.284  -8.127 -26.086  0.00  0.00    +0.000 C 
ATOM      2  O   UNL     1     -42.823  -6.957 -26.166  0.00  0.00    +0.000 OA
ATOM      3  N   UNL     1     -43.653  -8.826 -27.296  0.00  0.00    +0.000 N 
ATOM      4  C   UNL     1     -43.088  -8.418 -28.579  0.00  0.00    +0.000 C 
ATOM      5  C   UNL     1     -43.667  -7.088 -29.052  0.00  0.00    +0.000 C 
ATOM      6  C   UNL     1     -44.962  -7.292 -29.824  0.00  0.00    +0.000 C 
ATOM      7  C   UNL     1     -46.132  -7.504 -28.874  0.00  0.00    +0.000 C 
ATOM      8  C   UNL     1     -47.242  -8.308 -29.535  0.00  0.00    +0.000 C 
ATOM      9  C   UNL     1     -46.807  -9.754 -29.738  0.00  0.00    +0.000 C 
ATOM     10  N   UNL     1     -47.339 -10.624 -28.695  0.00  0.00    +0.000 N 
ATOM     11  C   UNL     1     -46.900 -10.636 -27.330  0.00  0.00    +0.000 C 
ATOM     12  O   UNL     1     -47.371 -11.496 -26.540  0.00  0.00    +0.000 OA
ATOM     13  C   UNL     1     -45.901  -9.656 -26.819  0.00  0.00    +0.000 C 
ATOM     14  C   UNL     1     -44.501 -10.013 -27.293  0.00  0.00    +0.000 C 
ATOM     15  H   UNL     1     -48.054 -11.251 -28.947  0.00  0.00    +0.000 HD
ENDROOT
BRANCH   1  20
ATOM     16  C   UNL     1     -44.648  -9.464 -21.062  0.00  0.00    +0.000 C 
ATOM     17  C   UNL     1     -44.047  -9.333 -22.413  0.00  0.00    +0.000 A 
ATOM     18  C   UNL     1     -42.972 -10.072 -22.885  0.00  0.00    +0.000 A 
ATOM     19  C   UNL     1     -42.616  -9.730 -24.198  0.00  0.00    +0.000 A 
ATOM     20  C   UNL     1     -43.421  -8.734 -24.745  0.00  0.00    +0.000 A 
ATOM     21  S   UNL     1     -44.559  -8.261 -23.598  0.00  0.00    +0.000 S 
ENDBRANCH   1  20
BRANCH   7  22
ATOM     22  C   UNL     1     -46.650  -6.202 -28.366  0.00  0.00    +0.000 A 
ATOM     23  N   UNL     1     -46.496  -5.788 -27.094  0.00  0.00    +0.000 NA
ATOM     24  C   UNL     1     -47.111  -4.587 -27.132  0.00  0.00    +0.000 A 
ATOM     25  N   UNL     1     -47.605  -4.297 -28.353  0.00  0.00    +0.000 NA
ATOM     26  O   UNL     1     -47.298  -5.322 -29.089  0.00  0.00    +0.000 OA
BRANCH  24  27
ATOM     27  C   UNL     1     -47.223  -3.692 -25.970  0.00  0.00    +0.000 A 
ATOM     28  C   UNL     1     -47.371  -2.310 -26.151  0.00  0.00    +0.000 A 
ATOM     29  C   UNL     1     -47.477  -1.460 -25.046  0.00  0.00    +0.000 A 
ATOM     30  C   UNL     1     -47.436  -1.988 -23.752  0.00  0.00    +0.000 A 
ATOM     31  C   UNL     1     -47.289  -3.366 -23.564  0.00  0.00    +0.000 A 
ATOM     32  C   UNL     1     -47.184  -4.215 -24.669  0.00  0.00    +0.000 A 
ENDBRANCH  24  27
ENDBRANCH   7  22
TORSDOF 3
ENDMDL
