MODEL 1
REMARK VINA RESULT:      -7.7      0.000      0.000
REMARK  Name = ZINC000008996339
REMARK  4 active torsions:
REMARK  status: ('A' for Active; 'I' for Inactive)
REMARK    1  A    between atoms: C_4  and  O_5
REMARK    2  A    between atoms: C_6  and  C_22
REMARK    3  A    between atoms: C_7  and  C_9
REMARK    4  A    between atoms: C_22  and  C_24
REMARK                            x       y       z     vdW  Elec       q    Type
REMARK                         _______ _______ _______ _____ _____    ______ ____
ROOT
ATOM      1  N   UNL     1     -45.477 -14.787 -25.693  0.00  0.00    +0.000 N 
ATOM      2  C   UNL     1     -44.758 -15.519 -26.673  0.00  0.00    +0.000 C 
ATOM      3  O   UNL     1     -44.231 -15.016 -27.700  0.00  0.00    +0.000 OA
ATOM      4  C   UNL     1     -44.742 -16.915 -26.320  0.00  0.00    +0.000 C 
ATOM      5  C   UNL     1     -45.416 -17.080 -25.181  0.00  0.00    +0.000 C 
ATOM      6  C   UNL     1     -45.919 -15.740 -24.672  0.00  0.00    +0.000 C 
ATOM      7  C   UNL     1     -45.632  -9.855 -25.239  0.00  0.00    +0.000 C 
ATOM      8  C   UNL     1     -45.920 -11.274 -25.574  0.00  0.00    +0.000 A 
ATOM      9  C   UNL     1     -45.141 -12.356 -25.211  0.00  0.00    +0.000 A 
ATOM     10  C   UNL     1     -45.852 -13.404 -25.770  0.00  0.00    +0.000 A 
ATOM     11  N   UNL     1     -46.954 -12.963 -26.406  0.00  0.00    +0.000 NA
ATOM     12  O   UNL     1     -46.960 -11.672 -26.266  0.00  0.00    +0.000 OA
ENDROOT
BRANCH   6  13
ATOM     13  C   UNL     1     -45.317 -15.397 -23.337  0.00  0.00    +0.000 A 
ATOM     14  C   UNL     1     -46.165 -15.110 -22.261  0.00  0.00    +0.000 A 
ATOM     15  C   UNL     1     -45.630 -14.778 -21.013  0.00  0.00    +0.000 A 
ATOM     16  C   UNL     1     -44.245 -14.726 -20.838  0.00  0.00    +0.000 A 
ATOM     17  C   UNL     1     -43.677 -14.374 -19.510  0.00  0.00    +0.000 C 
ATOM     18  C   UNL     1     -43.393 -15.003 -21.911  0.00  0.00    +0.000 A 
ATOM     19  C   UNL     1     -43.926 -15.335 -23.158  0.00  0.00    +0.000 A 
ENDBRANCH   6  13
BRANCH   4  20
ATOM     20  O   UNL     1     -44.139 -17.923 -27.063  0.00  0.00    +0.000 OA
ATOM     21  H   UNL     1     -43.489 -18.471 -26.670  0.00  0.00    +0.000 HD
ENDBRANCH   4  20
BRANCH   5  22
ATOM     22  C   UNL     1     -45.637 -18.384 -24.515  0.00  0.00    +0.000 C 
ATOM     23  O   UNL     1     -46.247 -19.302 -25.127  0.00  0.00    +0.000 OA
BRANCH  22  24
ATOM     24  C   UNL     1     -45.157 -18.640 -23.146  0.00  0.00    +0.000 A 
ATOM     25  C   UNL     1     -43.860 -19.052 -22.827  0.00  0.00    +0.000 A 
ATOM     26  C   UNL     1     -43.903 -19.153 -21.453  0.00  0.00    +0.000 A 
ATOM     27  C   UNL     1     -42.907 -19.520 -20.550  0.00  0.00    +0.000 A 
ATOM     28  C   UNL     1     -43.240 -19.535 -19.184  0.00  0.00    +0.000 A 
ATOM     29  C   UNL     1     -44.541 -19.187 -18.759  0.00  0.00    +0.000 A 
ATOM     30  C   UNL     1     -45.525 -18.821 -19.695  0.00  0.00    +0.000 A 
ATOM     31  C   UNL     1     -45.162 -18.818 -21.040  0.00  0.00    +0.000 A 
ATOM     32  O   UNL     1     -45.907 -18.514 -22.067  0.00  0.00    +0.000 OA
ENDBRANCH  22  24
ENDBRANCH   5  22
TORSDOF 4
ENDMDL
MODEL 2
REMARK VINA RESULT:      -7.1      7.570     13.724
REMARK  Name = ZINC000008996339
REMARK  4 active torsions:
REMARK  status: ('A' for Active; 'I' for Inactive)
REMARK    1  A    between atoms: C_4  and  O_5
REMARK    2  A    between atoms: C_6  and  C_22
REMARK    3  A    between atoms: C_7  and  C_9
REMARK    4  A    between atoms: C_22  and  C_24
REMARK                            x       y       z     vdW  Elec       q    Type
REMARK                         _______ _______ _______ _____ _____    ______ ____
ROOT
ATOM      1  N   UNL     1     -46.461  -6.467 -26.519  0.00  0.00    +0.000 N 
ATOM      2  C   UNL     1     -46.844  -5.120 -26.289  0.00  0.00    +0.000 C 
ATOM      3  O   UNL     1     -47.016  -4.608 -25.152  0.00  0.00    +0.000 OA
ATOM      4  C   UNL     1     -47.020  -4.444 -27.548  0.00  0.00    +0.000 C 
ATOM      5  C   UNL     1     -46.773  -5.304 -28.537  0.00  0.00    +0.000 C 
ATOM      6  C   UNL     1     -46.372  -6.655 -27.969  0.00  0.00    +0.000 C 
ATOM      7  C   UNL     1     -44.773  -9.661 -23.128  0.00  0.00    +0.000 C 
ATOM      8  C   UNL     1     -45.622  -8.880 -24.065  0.00  0.00    +0.000 A 
ATOM      9  C   UNL     1     -45.175  -7.871 -24.897  0.00  0.00    +0.000 A 
ATOM     10  C   UNL     1     -46.350  -7.500 -25.530  0.00  0.00    +0.000 A 
ATOM     11  N   UNL     1     -47.392  -8.236 -25.098  0.00  0.00    +0.000 NA
ATOM     12  O   UNL     1     -46.913  -9.056 -24.213  0.00  0.00    +0.000 OA
ENDROOT
BRANCH   6  13
ATOM     13  C   UNL     1     -44.969  -7.025 -28.366  0.00  0.00    +0.000 A 
ATOM     14  C   UNL     1     -43.918  -6.160 -28.040  0.00  0.00    +0.000 A 
ATOM     15  C   UNL     1     -42.608  -6.475 -28.407  0.00  0.00    +0.000 A 
ATOM     16  C   UNL     1     -42.342  -7.656 -29.106  0.00  0.00    +0.000 A 
ATOM     17  C   UNL     1     -40.948  -7.992 -29.495  0.00  0.00    +0.000 C 
ATOM     18  C   UNL     1     -43.388  -8.520 -29.442  0.00  0.00    +0.000 A 
ATOM     19  C   UNL     1     -44.699  -8.206 -29.075  0.00  0.00    +0.000 A 
ENDBRANCH   6  13
BRANCH   4  20
ATOM     20  O   UNL     1     -47.409  -3.118 -27.700  0.00  0.00    +0.000 OA
ATOM     21  H   UNL     1     -46.778  -2.471 -27.946  0.00  0.00    +0.000 HD
ENDBRANCH   4  20
BRANCH   5  22
ATOM     22  C   UNL     1     -46.875  -4.980 -29.979  0.00  0.00    +0.000 C 
ATOM     23  O   UNL     1     -47.756  -5.543 -30.684  0.00  0.00    +0.000 OA
BRANCH  22  24
ATOM     24  C   UNL     1     -45.969  -4.008 -30.615  0.00  0.00    +0.000 A 
ATOM     25  C   UNL     1     -44.761  -4.340 -31.236  0.00  0.00    +0.000 A 
ATOM     26  C   UNL     1     -44.293  -3.117 -31.665  0.00  0.00    +0.000 A 
ATOM     27  C   UNL     1     -43.128  -2.797 -32.358  0.00  0.00    +0.000 A 
ATOM     28  C   UNL     1     -42.907  -1.443 -32.669  0.00  0.00    +0.000 A 
ATOM     29  C   UNL     1     -43.841  -0.457 -32.285  0.00  0.00    +0.000 A 
ATOM     30  C   UNL     1     -45.009  -0.811 -31.585  0.00  0.00    +0.000 A 
ATOM     31  C   UNL     1     -45.197  -2.160 -31.293  0.00  0.00    +0.000 A 
ATOM     32  O   UNL     1     -46.199  -2.708 -30.661  0.00  0.00    +0.000 OA
ENDBRANCH  22  24
ENDBRANCH   5  22
TORSDOF 4
ENDMDL
MODEL 3
REMARK VINA RESULT:      -7.0      2.638      6.808
REMARK  Name = ZINC000008996339
REMARK  4 active torsions:
REMARK  status: ('A' for Active; 'I' for Inactive)
REMARK    1  A    between atoms: C_4  and  O_5
REMARK    2  A    between atoms: C_6  and  C_22
REMARK    3  A    between atoms: C_7  and  C_9
REMARK    4  A    between atoms: C_22  and  C_24
REMARK                            x       y       z     vdW  Elec       q    Type
REMARK                         _______ _______ _______ _____ _____    ______ ____
ROOT
ATOM      1  N   UNL     1     -42.969 -19.215 -22.419  0.00  0.00    +0.000 N 
ATOM      2  C   UNL     1     -43.218 -20.379 -23.191  0.00  0.00    +0.000 C 
ATOM      3  O   UNL     1     -42.597 -21.467 -23.067  0.00  0.00    +0.000 OA
ATOM      4  C   UNL     1     -44.269 -20.117 -24.140  0.00  0.00    +0.000 C 
ATOM      5  C   UNL     1     -44.674 -18.854 -23.996  0.00  0.00    +0.000 C 
ATOM      6  C   UNL     1     -43.902 -18.181 -22.875  0.00  0.00    +0.000 C 
ATOM      7  C   UNL     1     -40.208 -18.946 -18.314  0.00  0.00    +0.000 C 
ATOM      8  C   UNL     1     -40.702 -18.909 -19.715  0.00  0.00    +0.000 A 
ATOM      9  C   UNL     1     -41.985 -19.222 -20.120  0.00  0.00    +0.000 A 
ATOM     10  C   UNL     1     -41.894 -19.025 -21.488  0.00  0.00    +0.000 A 
ATOM     11  N   UNL     1     -40.658 -18.630 -21.845  0.00  0.00    +0.000 NA
ATOM     12  O   UNL     1     -39.966 -18.573 -20.747  0.00  0.00    +0.000 OA
ENDROOT
BRANCH   6  13
ATOM     13  C   UNL     1     -44.812 -17.763 -21.753  0.00  0.00    +0.000 A 
ATOM     14  C   UNL     1     -44.927 -16.404 -21.439  0.00  0.00    +0.000 A 
ATOM     15  C   UNL     1     -45.757 -15.991 -20.394  0.00  0.00    +0.000 A 
ATOM     16  C   UNL     1     -46.473 -16.936 -19.655  0.00  0.00    +0.000 A 
ATOM     17  C   UNL     1     -47.357 -16.496 -18.544  0.00  0.00    +0.000 C 
ATOM     18  C   UNL     1     -46.357 -18.296 -19.958  0.00  0.00    +0.000 A 
ATOM     19  C   UNL     1     -45.527 -18.709 -21.002  0.00  0.00    +0.000 A 
ENDBRANCH   6  13
BRANCH   4  20
ATOM     20  O   UNL     1     -44.759 -21.029 -25.067  0.00  0.00    +0.000 OA
ATOM     21  H   UNL     1     -45.050 -21.874 -24.785  0.00  0.00    +0.000 HD
ENDBRANCH   4  20
BRANCH   5  22
ATOM     22  C   UNL     1     -45.726 -18.210 -24.815  0.00  0.00    +0.000 C 
ATOM     23  O   UNL     1     -46.789 -18.837 -25.073  0.00  0.00    +0.000 OA
BRANCH  22  24
ATOM     24  C   UNL     1     -45.564 -16.842 -25.338  0.00  0.00    +0.000 A 
ATOM     25  C   UNL     1     -46.216 -15.716 -24.825  0.00  0.00    +0.000 A 
ATOM     26  C   UNL     1     -45.748 -14.701 -25.631  0.00  0.00    +0.000 A 
ATOM     27  C   UNL     1     -46.034 -13.337 -25.610  0.00  0.00    +0.000 A 
ATOM     28  C   UNL     1     -45.399 -12.525 -26.568  0.00  0.00    +0.000 A 
ATOM     29  C   UNL     1     -44.509 -13.086 -27.509  0.00  0.00    +0.000 A 
ATOM     30  C   UNL     1     -44.242 -14.467 -27.505  0.00  0.00    +0.000 A 
ATOM     31  C   UNL     1     -44.886 -15.243 -26.544  0.00  0.00    +0.000 A 
ATOM     32  O   UNL     1     -44.786 -16.531 -26.359  0.00  0.00    +0.000 OA
ENDBRANCH  22  24
ENDBRANCH   5  22
TORSDOF 4
ENDMDL
