MODEL 1
REMARK VINA RESULT:      -6.2      0.000      0.000
REMARK  Name = ZINC000018195610 ZINC18195610
REMARK  2 active torsions:
REMARK  status: ('A' for Active; 'I' for Inactive)
REMARK    1  A    between atoms: C_6  and  C_21
REMARK    2  A    between atoms: C_11  and  O_12
REMARK                            x       y       z     vdW  Elec       q    Type
REMARK                         _______ _______ _______ _____ _____    ______ ____
ROOT
ATOM      1  C   UNL     1     -44.763  -1.951 -33.674  0.00  0.00    +0.000 C 
ATOM      2  C   UNL     1     -44.230  -1.629 -32.286  0.00  0.00    +0.000 C 
ATOM      3  C   UNL     1     -45.238  -2.058 -31.218  0.00  0.00    +0.000 C 
ATOM      4  C   UNL     1     -45.332  -3.552 -31.038  0.00  0.00    +0.000 C 
ATOM      5  C   UNL     1     -44.295  -4.379 -31.368  0.00  0.00    +0.000 C 
ATOM      6  C   UNL     1     -44.397  -5.904 -31.243  0.00  0.00    +0.000 C 
ATOM      7  C   UNL     1     -45.613  -6.315 -30.472  0.00  0.00    +0.000 A 
ATOM      8  C   UNL     1     -46.607  -5.457 -30.143  0.00  0.00    +0.000 A 
ATOM      9  N   UNL     1     -47.613  -6.089 -29.512  0.00  0.00    +0.000 N 
ATOM     10  N   UNL     1     -47.276  -7.374 -29.436  0.00  0.00    +0.000 NA
ATOM     11  C   UNL     1     -46.067  -7.528 -30.018  0.00  0.00    +0.000 A 
ATOM     12  N   UNL     1     -46.531  -4.067 -30.430  0.00  0.00    +0.000 N 
ATOM     13  C   UNL     1     -43.036  -3.798 -31.894  0.00  0.00    +0.000 C 
ATOM     14  O   UNL     1     -42.056  -4.541 -32.167  0.00  0.00    +0.000 OA
ATOM     15  C   UNL     1     -42.885  -2.316 -32.059  0.00  0.00    +0.000 C 
ATOM     16  C   UNL     1     -44.031  -0.133 -32.189  0.00  0.00    +0.000 C 
ATOM     17  H   UNL     1     -48.441  -5.679 -29.171  0.00  0.00    +0.000 HD
ATOM     18  H   UNL     1     -47.283  -3.470 -30.218  0.00  0.00    +0.000 HD
ENDROOT
BRANCH   6  19
ATOM     19  C   UNL     1     -44.387  -6.563 -32.592  0.00  0.00    +0.000 A 
ATOM     20  C   UNL     1     -45.277  -6.176 -33.603  0.00  0.00    +0.000 A 
ATOM     21  C   UNL     1     -45.245  -6.817 -34.843  0.00  0.00    +0.000 A 
ATOM     22  C   UNL     1     -44.322  -7.843 -35.055  0.00  0.00    +0.000 A 
ATOM     23  N   UNL     1     -43.467  -8.209 -34.061  0.00  0.00    +0.000 NA
ATOM     24  C   UNL     1     -43.482  -7.597 -32.847  0.00  0.00    +0.000 A 
ENDBRANCH   6  19
BRANCH  11  25
ATOM     25  O   UNL     1     -45.407  -8.744 -30.136  0.00  0.00    +0.000 OA
ATOM     26  H   UNL     1     -44.754  -8.986 -29.509  0.00  0.00    +0.000 HD
ENDBRANCH  11  25
TORSDOF 2
ENDMDL
MODEL 2
REMARK VINA RESULT:      -6.2      2.242      3.781
REMARK  Name = ZINC000018195610 ZINC18195610
REMARK  2 active torsions:
REMARK  status: ('A' for Active; 'I' for Inactive)
REMARK    1  A    between atoms: C_6  and  C_21
REMARK    2  A    between atoms: C_11  and  O_12
REMARK                            x       y       z     vdW  Elec       q    Type
REMARK                         _______ _______ _______ _____ _____    ______ ____
ROOT
ATOM      1  C   UNL     1     -42.701  -2.408 -32.099  0.00  0.00    +0.000 C 
ATOM      2  C   UNL     1     -43.982  -1.847 -32.697  0.00  0.00    +0.000 C 
ATOM      3  C   UNL     1     -44.600  -2.855 -33.669  0.00  0.00    +0.000 C 
ATOM      4  C   UNL     1     -45.221  -4.049 -32.990  0.00  0.00    +0.000 C 
ATOM      5  C   UNL     1     -45.664  -3.987 -31.699  0.00  0.00    +0.000 C 
ATOM      6  C   UNL     1     -46.246  -5.210 -30.977  0.00  0.00    +0.000 C 
ATOM      7  C   UNL     1     -46.520  -6.333 -31.928  0.00  0.00    +0.000 A 
ATOM      8  C   UNL     1     -46.083  -6.343 -33.210  0.00  0.00    +0.000 A 
ATOM      9  N   UNL     1     -46.404  -7.494 -33.829  0.00  0.00    +0.000 N 
ATOM     10  N   UNL     1     -47.049  -8.245 -32.941  0.00  0.00    +0.000 NA
ATOM     11  C   UNL     1     -47.123  -7.557 -31.781  0.00  0.00    +0.000 A 
ATOM     12  N   UNL     1     -45.401  -5.237 -33.783  0.00  0.00    +0.000 N 
ATOM     13  C   UNL     1     -45.555  -2.713 -30.949  0.00  0.00    +0.000 C 
ATOM     14  O   UNL     1     -45.993  -2.627 -29.771  0.00  0.00    +0.000 OA
ATOM     15  C   UNL     1     -44.975  -1.490 -31.593  0.00  0.00    +0.000 C 
ATOM     16  C   UNL     1     -43.638  -0.588 -33.463  0.00  0.00    +0.000 C 
ATOM     17  H   UNL     1     -46.201  -7.733 -34.762  0.00  0.00    +0.000 HD
ATOM     18  H   UNL     1     -45.057  -5.283 -34.704  0.00  0.00    +0.000 HD
ENDROOT
BRANCH   6  19
ATOM     19  C   UNL     1     -45.342  -5.670 -29.871  0.00  0.00    +0.000 A 
ATOM     20  C   UNL     1     -43.969  -5.860 -30.078  0.00  0.00    +0.000 A 
ATOM     21  C   UNL     1     -43.160  -6.298 -29.027  0.00  0.00    +0.000 A 
ATOM     22  C   UNL     1     -43.738  -6.545 -27.781  0.00  0.00    +0.000 A 
ATOM     23  N   UNL     1     -45.073  -6.359 -27.598  0.00  0.00    +0.000 NA
ATOM     24  C   UNL     1     -45.878  -5.933 -28.608  0.00  0.00    +0.000 A 
ENDBRANCH   6  19
BRANCH  11  25
ATOM     25  O   UNL     1     -47.717  -8.042 -30.622  0.00  0.00    +0.000 OA
ATOM     26  H   UNL     1     -48.551  -7.712 -30.350  0.00  0.00    +0.000 HD
ENDBRANCH  11  25
TORSDOF 2
ENDMDL
MODEL 3
REMARK VINA RESULT:      -5.9     13.394     16.014
REMARK  Name = ZINC000018195610 ZINC18195610
REMARK  2 active torsions:
REMARK  status: ('A' for Active; 'I' for Inactive)
REMARK    1  A    between atoms: C_6  and  C_21
REMARK    2  A    between atoms: C_11  and  O_12
REMARK                            x       y       z     vdW  Elec       q    Type
REMARK                         _______ _______ _______ _____ _____    ______ ____
ROOT
ATOM      1  C   UNL     1     -44.043 -16.254 -19.183  0.00  0.00    +0.000 C 
ATOM      2  C   UNL     1     -45.550 -16.181 -19.380  0.00  0.00    +0.000 C 
ATOM      3  C   UNL     1     -45.884 -15.361 -20.628  0.00  0.00    +0.000 C 
ATOM      4  C   UNL     1     -45.563 -16.068 -21.921  0.00  0.00    +0.000 C 
ATOM      5  C   UNL     1     -45.506 -17.431 -21.995  0.00  0.00    +0.000 C 
ATOM      6  C   UNL     1     -45.126 -18.162 -23.289  0.00  0.00    +0.000 C 
ATOM      7  C   UNL     1     -45.120 -17.235 -24.465  0.00  0.00    +0.000 A 
ATOM      8  C   UNL     1     -45.204 -15.889 -24.348  0.00  0.00    +0.000 A 
ATOM      9  N   UNL     1     -45.109 -15.285 -25.547  0.00  0.00    +0.000 N 
ATOM     10  N   UNL     1     -44.953 -16.246 -26.454  0.00  0.00    +0.000 NA
ATOM     11  C   UNL     1     -44.952 -17.434 -25.812  0.00  0.00    +0.000 A 
ATOM     12  N   UNL     1     -45.396 -15.250 -23.093  0.00  0.00    +0.000 N 
ATOM     13  C   UNL     1     -45.787 -18.242 -20.786  0.00  0.00    +0.000 C 
ATOM     14  O   UNL     1     -45.777 -19.500 -20.845  0.00  0.00    +0.000 OA
ATOM     15  C   UNL     1     -46.143 -17.584 -19.486  0.00  0.00    +0.000 C 
ATOM     16  C   UNL     1     -46.153 -15.492 -18.175  0.00  0.00    +0.000 C 
ATOM     17  H   UNL     1     -45.149 -14.317 -25.720  0.00  0.00    +0.000 HD
ATOM     18  H   UNL     1     -45.414 -14.269 -23.028  0.00  0.00    +0.000 HD
ENDROOT
BRANCH   6  19
ATOM     19  C   UNL     1     -43.797 -18.847 -23.158  0.00  0.00    +0.000 A 
ATOM     20  C   UNL     1     -43.632 -20.198 -23.494  0.00  0.00    +0.000 A 
ATOM     21  C   UNL     1     -42.383 -20.805 -23.350  0.00  0.00    +0.000 A 
ATOM     22  C   UNL     1     -41.312 -20.051 -22.866  0.00  0.00    +0.000 A 
ATOM     23  N   UNL     1     -41.489 -18.742 -22.541  0.00  0.00    +0.000 NA
ATOM     24  C   UNL     1     -42.698 -18.132 -22.674  0.00  0.00    +0.000 A 
ENDBRANCH   6  19
BRANCH  11  25
ATOM     25  O   UNL     1     -44.794 -18.662 -26.444  0.00  0.00    +0.000 OA
ATOM     26  H   UNL     1     -44.145 -18.765 -27.112  0.00  0.00    +0.000 HD
ENDBRANCH  11  25
TORSDOF 2
ENDMDL
