MODEL 1
REMARK VINA RESULT:      -6.4      0.000      0.000
REMARK  Name = ZINC000009380298 ZINC09380298 MolPort-002-580-065 PubChem-1960546
REMARK  4 active torsions:
REMARK  status: ('A' for Active; 'I' for Inactive)
REMARK    1  A    between atoms: N_1  and  C_29
REMARK    2  A    between atoms: C_8  and  C_12
REMARK    3  A    between atoms: C_25  and  O_32
REMARK    4  A    between atoms: C_28  and  O_33
REMARK                            x       y       z     vdW  Elec       q    Type
REMARK                         _______ _______ _______ _____ _____    ______ ____
ROOT
ATOM      1  N   UNL     1     -46.212  -7.375 -34.640  0.00  0.00    +0.000 N 
ATOM      2  C   UNL     1     -46.664  -6.515 -35.711  0.00  0.00    +0.000 C 
ATOM      3  S   UNL     1     -46.509  -6.942 -37.286  0.00  0.00    +0.000 S 
ATOM      4  N   UNL     1     -47.204  -5.227 -35.411  0.00  0.00    +0.000 N 
ATOM      5  C   UNL     1     -47.205  -4.706 -34.083  0.00  0.00    +0.000 C 
ATOM      6  O   UNL     1     -47.682  -3.559 -33.870  0.00  0.00    +0.000 OA
ATOM      7  C   UNL     1     -46.622  -5.499 -32.986  0.00  0.00    +0.000 C 
ATOM      8  C   UNL     1     -46.426  -4.905 -31.795  0.00  0.00    +0.000 C 
ATOM      9  C   UNL     1     -46.312  -6.921 -33.276  0.00  0.00    +0.000 C 
ATOM     10  O   UNL     1     -46.220  -7.756 -32.333  0.00  0.00    +0.000 OA
ATOM     11  H   UNL     1     -47.585  -4.685 -36.140  0.00  0.00    +0.000 HD
ENDROOT
BRANCH   8  12
ATOM     12  C   UNL     1     -45.708  -5.445 -30.627  0.00  0.00    +0.000 A 
ATOM     13  C   UNL     1     -44.314  -5.600 -30.631  0.00  0.00    +0.000 A 
ATOM     14  C   UNL     1     -43.649  -6.058 -29.493  0.00  0.00    +0.000 A 
ATOM     15  C   UNL     1     -44.377  -6.321 -28.319  0.00  0.00    +0.000 A 
ATOM     16  N   UNL     1     -43.700  -6.809 -27.147  0.00  0.00    +0.000 N 
ATOM     17  C   UNL     1     -44.469  -7.323 -26.021  0.00  0.00    +0.000 C 
ATOM     18  C   UNL     1     -45.694  -6.443 -25.794  0.00  0.00    +0.000 C 
ATOM     19  C   UNL     1     -46.567  -6.406 -27.052  0.00  0.00    +0.000 C 
ATOM     20  C   UNL     1     -45.770  -6.123 -28.296  0.00  0.00    +0.000 A 
ATOM     21  C   UNL     1     -46.425  -5.686 -29.450  0.00  0.00    +0.000 A 
ATOM     22  C   UNL     1     -42.241  -6.817 -27.088  0.00  0.00    +0.000 C 
ATOM     23  C   UNL     1     -41.668  -7.190 -28.453  0.00  0.00    +0.000 C 
ATOM     24  C   UNL     1     -42.153  -6.196 -29.509  0.00  0.00    +0.000 C 
ENDBRANCH   8  12
BRANCH   1  29
ATOM     25  C   UNL     1     -46.160 -11.057 -35.352  0.00  0.00    +0.000 A 
ATOM     26  C   UNL     1     -44.787 -11.309 -35.357  0.00  0.00    +0.000 A 
ATOM     27  C   UNL     1     -43.879 -10.271 -35.135  0.00  0.00    +0.000 A 
ATOM     28  C   UNL     1     -44.334  -8.962 -34.904  0.00  0.00    +0.000 A 
ATOM     29  C   UNL     1     -45.718  -8.703 -34.901  0.00  0.00    +0.000 A 
ATOM     30  C   UNL     1     -46.620  -9.753 -35.120  0.00  0.00    +0.000 A 
BRANCH  25  32
ATOM     31  C   UNL     1     -47.304 -12.637 -36.874  0.00  0.00    +0.000 C 
ATOM     32  O   UNL     1     -47.044 -12.116 -35.578  0.00  0.00    +0.000 OA
ENDBRANCH  25  32
BRANCH  28  33
ATOM     33  O   UNL     1     -43.435  -7.913 -34.684  0.00  0.00    +0.000 OA
ATOM     34  C   UNL     1     -42.658  -7.799 -33.499  0.00  0.00    +0.000 C 
ENDBRANCH  28  33
ENDBRANCH   1  29
TORSDOF 4
ENDMDL
MODEL 2
REMARK VINA RESULT:      -6.4      2.862      5.710
REMARK  Name = ZINC000009380298 ZINC09380298 MolPort-002-580-065 PubChem-1960546
REMARK  4 active torsions:
REMARK  status: ('A' for Active; 'I' for Inactive)
REMARK    1  A    between atoms: N_1  and  C_29
REMARK    2  A    between atoms: C_8  and  C_12
REMARK    3  A    between atoms: C_25  and  O_32
REMARK    4  A    between atoms: C_28  and  O_33
REMARK                            x       y       z     vdW  Elec       q    Type
REMARK                         _______ _______ _______ _____ _____    ______ ____
ROOT
ATOM      1  N   UNL     1     -45.611  -5.525 -32.119  0.00  0.00    +0.000 N 
ATOM      2  C   UNL     1     -46.378  -6.001 -33.249  0.00  0.00    +0.000 C 
ATOM      3  S   UNL     1     -46.951  -4.979 -34.396  0.00  0.00    +0.000 S 
ATOM      4  N   UNL     1     -46.709  -7.387 -33.353  0.00  0.00    +0.000 N 
ATOM      5  C   UNL     1     -46.406  -8.309 -32.308  0.00  0.00    +0.000 C 
ATOM      6  O   UNL     1     -46.730  -9.520 -32.441  0.00  0.00    +0.000 OA
ATOM      7  C   UNL     1     -45.752  -7.832 -31.078  0.00  0.00    +0.000 C 
ATOM      8  C   UNL     1     -45.681  -8.662 -30.021  0.00  0.00    +0.000 C 
ATOM      9  C   UNL     1     -45.189  -6.459 -31.105  0.00  0.00    +0.000 C 
ATOM     10  O   UNL     1     -44.276  -6.130 -30.298  0.00  0.00    +0.000 OA
ATOM     11  H   UNL     1     -47.158  -7.713 -34.167  0.00  0.00    +0.000 HD
ENDROOT
BRANCH   8  12
ATOM     12  C   UNL     1     -45.234  -8.342 -28.654  0.00  0.00    +0.000 A 
ATOM     13  C   UNL     1     -43.888  -8.460 -28.277  0.00  0.00    +0.000 A 
ATOM     14  C   UNL     1     -43.478  -8.097 -26.993  0.00  0.00    +0.000 A 
ATOM     15  C   UNL     1     -44.413  -7.564 -26.087  0.00  0.00    +0.000 A 
ATOM     16  N   UNL     1     -44.000  -7.204 -24.757  0.00  0.00    +0.000 N 
ATOM     17  C   UNL     1     -44.999  -6.897 -23.741  0.00  0.00    +0.000 C 
ATOM     18  C   UNL     1     -46.124  -6.076 -24.361  0.00  0.00    +0.000 C 
ATOM     19  C   UNL     1     -46.772  -6.842 -25.519  0.00  0.00    +0.000 C 
ATOM     20  C   UNL     1     -45.755  -7.402 -26.476  0.00  0.00    +0.000 A 
ATOM     21  C   UNL     1     -46.156  -7.792 -27.757  0.00  0.00    +0.000 A 
ATOM     22  C   UNL     1     -42.582  -7.166 -24.409  0.00  0.00    +0.000 C 
ATOM     23  C   UNL     1     -41.848  -8.312 -25.100  0.00  0.00    +0.000 C 
ATOM     24  C   UNL     1     -42.028  -8.207 -26.615  0.00  0.00    +0.000 C 
ENDBRANCH   8  12
BRANCH   1  29
ATOM     25  C   UNL     1     -43.630  -2.371 -32.560  0.00  0.00    +0.000 A 
ATOM     26  C   UNL     1     -44.368  -1.481 -31.777  0.00  0.00    +0.000 A 
ATOM     27  C   UNL     1     -45.518  -1.913 -31.112  0.00  0.00    +0.000 A 
ATOM     28  C   UNL     1     -45.947  -3.246 -31.221  0.00  0.00    +0.000 A 
ATOM     29  C   UNL     1     -45.209  -4.146 -32.011  0.00  0.00    +0.000 A 
ATOM     30  C   UNL     1     -44.053  -3.704 -32.670  0.00  0.00    +0.000 A 
BRANCH  25  32
ATOM     31  C   UNL     1     -41.904  -0.642 -32.945  0.00  0.00    +0.000 C 
ATOM     32  O   UNL     1     -42.484  -1.910 -33.214  0.00  0.00    +0.000 OA
ENDBRANCH  25  32
BRANCH  28  33
ATOM     33  O   UNL     1     -47.099  -3.690 -30.563  0.00  0.00    +0.000 OA
ATOM     34  C   UNL     1     -47.088  -4.162 -29.223  0.00  0.00    +0.000 C 
ENDBRANCH  28  33
ENDBRANCH   1  29
TORSDOF 4
ENDMDL
MODEL 3
REMARK VINA RESULT:      -6.4      3.691      8.903
REMARK  Name = ZINC000009380298 ZINC09380298 MolPort-002-580-065 PubChem-1960546
REMARK  4 active torsions:
REMARK  status: ('A' for Active; 'I' for Inactive)
REMARK    1  A    between atoms: N_1  and  C_29
REMARK    2  A    between atoms: C_8  and  C_12
REMARK    3  A    between atoms: C_25  and  O_32
REMARK    4  A    between atoms: C_28  and  O_33
REMARK                            x       y       z     vdW  Elec       q    Type
REMARK                         _______ _______ _______ _____ _____    ______ ____
ROOT
ATOM      1  N   UNL     1     -45.236  -5.870 -32.142  0.00  0.00    +0.000 N 
ATOM      2  C   UNL     1     -45.196  -6.776 -31.016  0.00  0.00    +0.000 C 
ATOM      3  S   UNL     1     -44.696  -6.288 -29.532  0.00  0.00    +0.000 S 
ATOM      4  N   UNL     1     -45.537  -8.151 -31.194  0.00  0.00    +0.000 N 
ATOM      5  C   UNL     1     -45.806  -8.694 -32.486  0.00  0.00    +0.000 C 
ATOM      6  O   UNL     1     -46.090  -9.917 -32.594  0.00  0.00    +0.000 OA
ATOM      7  C   UNL     1     -45.715  -7.830 -33.675  0.00  0.00    +0.000 C 
ATOM      8  C   UNL     1     -45.746  -8.403 -34.892  0.00  0.00    +0.000 C 
ATOM      9  C   UNL     1     -45.620  -6.369 -33.439  0.00  0.00    +0.000 C 
ATOM     10  O   UNL     1     -45.957  -5.555 -34.343  0.00  0.00    +0.000 OA
ATOM     11  H   UNL     1     -45.588  -8.739 -30.406  0.00  0.00    +0.000 HD
ENDROOT
BRANCH   8  12
ATOM     12  C   UNL     1     -45.500  -7.763 -36.196  0.00  0.00    +0.000 A 
ATOM     13  C   UNL     1     -44.210  -7.680 -36.740  0.00  0.00    +0.000 A 
ATOM     14  C   UNL     1     -44.007  -7.121 -38.003  0.00  0.00    +0.000 A 
ATOM     15  C   UNL     1     -45.112  -6.681 -38.755  0.00  0.00    +0.000 A 
ATOM     16  N   UNL     1     -44.908  -6.088 -40.050  0.00  0.00    +0.000 N 
ATOM     17  C   UNL     1     -46.007  -5.402 -40.718  0.00  0.00    +0.000 C 
ATOM     18  C   UNL     1     -47.300  -6.184 -40.512  0.00  0.00    +0.000 C 
ATOM     19  C   UNL     1     -47.605  -6.331 -39.017  0.00  0.00    +0.000 C 
ATOM     20  C   UNL     1     -46.412  -6.803 -38.232  0.00  0.00    +0.000 A 
ATOM     21  C   UNL     1     -46.597  -7.344 -36.957  0.00  0.00    +0.000 A 
ATOM     22  C   UNL     1     -43.598  -6.147 -40.692  0.00  0.00    +0.000 C 
ATOM     23  C   UNL     1     -42.500  -5.973 -39.645  0.00  0.00    +0.000 C 
ATOM     24  C   UNL     1     -42.621  -7.063 -38.579  0.00  0.00    +0.000 C 
ENDBRANCH   8  12
BRANCH   1  29
ATOM     25  C   UNL     1     -43.368  -2.619 -32.081  0.00  0.00    +0.000 A 
ATOM     26  C   UNL     1     -44.365  -1.746 -31.641  0.00  0.00    +0.000 A 
ATOM     27  C   UNL     1     -45.650  -2.222 -31.372  0.00  0.00    +0.000 A 
ATOM     28  C   UNL     1     -45.956  -3.582 -31.540  0.00  0.00    +0.000 A 
ATOM     29  C   UNL     1     -44.956  -4.466 -31.987  0.00  0.00    +0.000 A 
ATOM     30  C   UNL     1     -43.668  -3.978 -32.249  0.00  0.00    +0.000 A 
BRANCH  25  32
ATOM     31  C   UNL     1     -41.858  -0.752 -32.676  0.00  0.00    +0.000 C 
ATOM     32  O   UNL     1     -42.091  -2.113 -32.343  0.00  0.00    +0.000 OA
ENDBRANCH  25  32
BRANCH  28  33
ATOM     33  O   UNL     1     -47.241  -4.071 -31.277  0.00  0.00    +0.000 OA
ATOM     34  C   UNL     1     -47.756  -4.218 -29.961  0.00  0.00    +0.000 C 
ENDBRANCH  28  33
ENDBRANCH   1  29
TORSDOF 4
ENDMDL
