MODEL 1
REMARK VINA RESULT:      -6.7      0.000      0.000
REMARK  Name = ZINC000004878453 PubChem-92237773
REMARK  9 active torsions:
REMARK  status: ('A' for Active; 'I' for Inactive)
REMARK    1  A    between atoms: N_17  and  C_20
REMARK    2  A    between atoms: C_20  and  C_21
REMARK    3  A    between atoms: C_21  and  O_22
REMARK    4  A    between atoms: C_21  and  C_24
REMARK    5  A    between atoms: C_24  and  O_25
REMARK    6  A    between atoms: C_24  and  C_27
REMARK    7  A    between atoms: C_27  and  O_28
REMARK    8  A    between atoms: C_27  and  C_30
REMARK    9  A    between atoms: C_30  and  O_31
REMARK                            x       y       z     vdW  Elec       q    Type
REMARK                         _______ _______ _______ _____ _____    ______ ____
ROOT
ATOM      1  C   UNL     1     -47.257  -3.412 -23.431  0.00  0.00    +0.000 C 
ATOM      2  C   UNL     1     -47.128  -4.011 -24.790  0.00  0.00    +0.000 A 
ATOM      3  C   UNL     1     -47.295  -3.239 -25.953  0.00  0.00    +0.000 A 
ATOM      4  C   UNL     1     -47.167  -3.838 -27.208  0.00  0.00    +0.000 A 
ATOM      5  C   UNL     1     -46.874  -5.208 -27.335  0.00  0.00    +0.000 A 
ATOM      6  C   UNL     1     -46.701  -5.973 -26.152  0.00  0.00    +0.000 A 
ATOM      7  C   UNL     1     -46.831  -5.372 -24.898  0.00  0.00    +0.000 A 
ATOM      8  C   UNL     1     -46.396  -7.329 -26.225  0.00  0.00    +0.000 A 
ATOM      9  C   UNL     1     -46.254  -7.936 -27.466  0.00  0.00    +0.000 A 
ATOM     10  C   UNL     1     -45.945  -9.287 -27.627  0.00  0.00    +0.000 A 
ATOM     11  O   UNL     1     -45.780 -10.036 -26.627  0.00  0.00    +0.000 OA
ATOM     12  N   UNL     1     -45.818  -9.801 -28.879  0.00  0.00    +0.000 N 
ATOM     13  C   UNL     1     -45.985  -9.040 -29.995  0.00  0.00    +0.000 A 
ATOM     14  O   UNL     1     -45.856  -9.564 -31.131  0.00  0.00    +0.000 OA
ATOM     15  N   UNL     1     -46.288  -7.719 -29.894  0.00  0.00    +0.000 NA
ATOM     16  C   UNL     1     -46.435  -7.121 -28.682  0.00  0.00    +0.000 A 
ATOM     17  N   UNL     1     -46.754  -5.795 -28.575  0.00  0.00    +0.000 N 
ATOM     18  C   UNL     1     -47.609  -1.784 -25.884  0.00  0.00    +0.000 C 
ATOM     19  H   UNL     1     -45.600 -10.756 -28.981  0.00  0.00    +0.000 HD
ENDROOT
BRANCH  17  20
ATOM     20  C   UNL     1     -46.935  -5.008 -29.802  0.00  0.00    +0.000 C 
BRANCH  20  21
ATOM     21  C   UNL     1     -45.642  -4.312 -30.225  0.00  0.00    +0.000 C 
BRANCH  21  22
ATOM     22  O   UNL     1     -44.692  -5.293 -30.515  0.00  0.00    +0.000 OA
ATOM     23  H   UNL     1     -45.059  -6.168 -30.317  0.00  0.00    +0.000 HD
ENDBRANCH  21  22
BRANCH  21  24
ATOM     24  C   UNL     1     -45.859  -3.412 -31.446  0.00  0.00    +0.000 C 
BRANCH  24  25
ATOM     25  O   UNL     1     -47.159  -2.898 -31.445  0.00  0.00    +0.000 OA
ATOM     26  H   UNL     1     -47.249  -2.244 -32.157  0.00  0.00    +0.000 HD
ENDBRANCH  24  25
BRANCH  24  27
ATOM     27  C   UNL     1     -44.849  -2.263 -31.482  0.00  0.00    +0.000 C 
BRANCH  27  28
ATOM     28  O   UNL     1     -45.278  -1.207 -30.675  0.00  0.00    +0.000 OA
ATOM     29  H   UNL     1     -46.112  -0.853 -31.021  0.00  0.00    +0.000 HD
ENDBRANCH  27  28
BRANCH  27  30
ATOM     30  C   UNL     1     -44.649  -1.782 -32.909  0.00  0.00    +0.000 C 
BRANCH  30  31
ATOM     31  O   UNL     1     -45.657  -2.293 -33.727  0.00  0.00    +0.000 OA
ATOM     32  H   UNL     1     -45.257  -2.754 -34.481  0.00  0.00    +0.000 HD
ENDBRANCH  30  31
ENDBRANCH  27  30
ENDBRANCH  24  27
ENDBRANCH  21  24
ENDBRANCH  20  21
ENDBRANCH  17  20
TORSDOF 9
ENDMDL
MODEL 2
REMARK VINA RESULT:      -6.5      8.516     11.933
REMARK  Name = ZINC000004878453 PubChem-92237773
REMARK  9 active torsions:
REMARK  status: ('A' for Active; 'I' for Inactive)
REMARK    1  A    between atoms: N_17  and  C_20
REMARK    2  A    between atoms: C_20  and  C_21
REMARK    3  A    between atoms: C_21  and  O_22
REMARK    4  A    between atoms: C_21  and  C_24
REMARK    5  A    between atoms: C_24  and  O_25
REMARK    6  A    between atoms: C_24  and  C_27
REMARK    7  A    between atoms: C_27  and  O_28
REMARK    8  A    between atoms: C_27  and  C_30
REMARK    9  A    between atoms: C_30  and  O_31
REMARK                            x       y       z     vdW  Elec       q    Type
REMARK                         _______ _______ _______ _____ _____    ______ ____
ROOT
ATOM      1  C   UNL     1     -46.612 -19.019 -19.436  0.00  0.00    +0.000 C 
ATOM      2  C   UNL     1     -46.082 -18.189 -20.554  0.00  0.00    +0.000 A 
ATOM      3  C   UNL     1     -45.861 -16.809 -20.406  0.00  0.00    +0.000 A 
ATOM      4  C   UNL     1     -45.364 -16.066 -21.479  0.00  0.00    +0.000 A 
ATOM      5  C   UNL     1     -45.079 -16.673 -22.716  0.00  0.00    +0.000 A 
ATOM      6  C   UNL     1     -45.301 -18.068 -22.848  0.00  0.00    +0.000 A 
ATOM      7  C   UNL     1     -45.799 -18.809 -21.774  0.00  0.00    +0.000 A 
ATOM      8  C   UNL     1     -45.021 -18.719 -24.047  0.00  0.00    +0.000 A 
ATOM      9  C   UNL     1     -44.516 -17.995 -25.119  0.00  0.00    +0.000 A 
ATOM     10  C   UNL     1     -44.204 -18.570 -26.352  0.00  0.00    +0.000 A 
ATOM     11  O   UNL     1     -44.376 -19.801 -26.554  0.00  0.00    +0.000 OA
ATOM     12  N   UNL     1     -43.707 -17.790 -27.349  0.00  0.00    +0.000 N 
ATOM     13  C   UNL     1     -43.500 -16.454 -27.189  0.00  0.00    +0.000 A 
ATOM     14  O   UNL     1     -43.038 -15.777 -28.143  0.00  0.00    +0.000 OA
ATOM     15  N   UNL     1     -43.789 -15.844 -26.008  0.00  0.00    +0.000 NA
ATOM     16  C   UNL     1     -44.290 -16.546 -24.957  0.00  0.00    +0.000 A 
ATOM     17  N   UNL     1     -44.594 -15.935 -23.772  0.00  0.00    +0.000 N 
ATOM     18  C   UNL     1     -46.146 -16.108 -19.122  0.00  0.00    +0.000 C 
ATOM     19  H   UNL     1     -43.491 -18.206 -28.215  0.00  0.00    +0.000 HD
ENDROOT
BRANCH  17  20
ATOM     20  C   UNL     1     -44.366 -14.491 -23.640  0.00  0.00    +0.000 C 
BRANCH  20  21
ATOM     21  C   UNL     1     -45.485 -13.677 -24.289  0.00  0.00    +0.000 C 
BRANCH  21  22
ATOM     22  O   UNL     1     -46.262 -13.115 -23.275  0.00  0.00    +0.000 OA
ATOM     23  H   UNL     1     -46.847 -13.792 -22.901  0.00  0.00    +0.000 HD
ENDBRANCH  21  22
BRANCH  21  24
ATOM     24  C   UNL     1     -44.929 -12.577 -25.199  0.00  0.00    +0.000 C 
BRANCH  24  25
ATOM     25  O   UNL     1     -43.675 -12.945 -25.695  0.00  0.00    +0.000 OA
ATOM     26  H   UNL     1     -43.000 -12.791 -25.014  0.00  0.00    +0.000 HD
ENDBRANCH  24  25
BRANCH  24  27
ATOM     27  C   UNL     1     -45.878 -12.279 -26.362  0.00  0.00    +0.000 C 
BRANCH  27  28
ATOM     28  O   UNL     1     -46.999 -11.578 -25.914  0.00  0.00    +0.000 OA
ATOM     29  H   UNL     1     -47.691 -11.604 -26.594  0.00  0.00    +0.000 HD
ENDBRANCH  27  28
BRANCH  27  30
ATOM     30  C   UNL     1     -46.306 -13.572 -27.036  0.00  0.00    +0.000 C 
BRANCH  30  31
ATOM     31  O   UNL     1     -45.398 -13.906 -28.041  0.00  0.00    +0.000 OA
ATOM     32  H   UNL     1     -44.750 -14.538 -27.693  0.00  0.00    +0.000 HD
ENDBRANCH  30  31
ENDBRANCH  27  30
ENDBRANCH  24  27
ENDBRANCH  21  24
ENDBRANCH  20  21
ENDBRANCH  17  20
TORSDOF 9
ENDMDL
MODEL 3
REMARK VINA RESULT:      -6.3     18.643     20.720
REMARK  Name = ZINC000004878453 PubChem-92237773
REMARK  9 active torsions:
REMARK  status: ('A' for Active; 'I' for Inactive)
REMARK    1  A    between atoms: N_17  and  C_20
REMARK    2  A    between atoms: C_20  and  C_21
REMARK    3  A    between atoms: C_21  and  O_22
REMARK    4  A    between atoms: C_21  and  C_24
REMARK    5  A    between atoms: C_24  and  O_25
REMARK    6  A    between atoms: C_24  and  C_27
REMARK    7  A    between atoms: C_27  and  O_28
REMARK    8  A    between atoms: C_27  and  C_30
REMARK    9  A    between atoms: C_30  and  O_31
REMARK                            x       y       z     vdW  Elec       q    Type
REMARK                         _______ _______ _______ _____ _____    ______ ____
ROOT
ATOM      1  C   UNL     1     -40.649  12.631 -18.399  0.00  0.00    +0.000 C 
ATOM      2  C   UNL     1     -40.882  13.100 -19.795  0.00  0.00    +0.000 A 
ATOM      3  C   UNL     1     -41.562  14.299 -20.065  0.00  0.00    +0.000 A 
ATOM      4  C   UNL     1     -41.762  14.703 -21.387  0.00  0.00    +0.000 A 
ATOM      5  C   UNL     1     -41.295  13.927 -22.463  0.00  0.00    +0.000 A 
ATOM      6  C   UNL     1     -40.605  12.721 -22.176  0.00  0.00    +0.000 A 
ATOM      7  C   UNL     1     -40.408  12.319 -20.853  0.00  0.00    +0.000 A 
ATOM      8  C   UNL     1     -40.111  11.925 -23.205  0.00  0.00    +0.000 A 
ATOM      9  C   UNL     1     -40.292  12.319 -24.525  0.00  0.00    +0.000 A 
ATOM     10  C   UNL     1     -39.826  11.582 -25.615  0.00  0.00    +0.000 A 
ATOM     11  O   UNL     1     -39.207  10.498 -25.445  0.00  0.00    +0.000 OA
ATOM     12  N   UNL     1     -40.040  12.043 -26.876  0.00  0.00    +0.000 N 
ATOM     13  C   UNL     1     -40.701  13.208 -27.120  0.00  0.00    +0.000 A 
ATOM     14  O   UNL     1     -40.873  13.590 -28.306  0.00  0.00    +0.000 OA
ATOM     15  N   UNL     1     -41.178  13.962 -26.093  0.00  0.00    +0.000 NA
ATOM     16  C   UNL     1     -41.010  13.578 -24.800  0.00  0.00    +0.000 A 
ATOM     17  N   UNL     1     -41.499  14.327 -23.765  0.00  0.00    +0.000 N 
ATOM     18  C   UNL     1     -42.082  15.164 -18.967  0.00  0.00    +0.000 C 
ATOM     19  H   UNL     1     -39.707  11.515 -27.638  0.00  0.00    +0.000 HD
ENDROOT
BRANCH  17  20
ATOM     20  C   UNL     1     -42.215  15.572 -24.067  0.00  0.00    +0.000 C 
BRANCH  20  21
ATOM     21  C   UNL     1     -43.730  15.384 -24.010  0.00  0.00    +0.000 C 
BRANCH  21  22
ATOM     22  O   UNL     1     -44.262  16.370 -23.178  0.00  0.00    +0.000 OA
ATOM     23  H   UNL     1     -45.169  16.573 -23.455  0.00  0.00    +0.000 HD
ENDBRANCH  21  22
BRANCH  21  24
ATOM     24  C   UNL     1     -44.363  15.472 -25.403  0.00  0.00    +0.000 C 
BRANCH  24  25
ATOM     25  O   UNL     1     -45.716  15.123 -25.344  0.00  0.00    +0.000 OA
ATOM     26  H   UNL     1     -45.902  14.694 -24.493  0.00  0.00    +0.000 HD
ENDBRANCH  24  25
BRANCH  24  27
ATOM     27  C   UNL     1     -44.217  16.874 -25.998  0.00  0.00    +0.000 C 
BRANCH  27  28
ATOM     28  O   UNL     1     -45.455  17.356 -26.429  0.00  0.00    +0.000 OA
ATOM     29  H   UNL     1     -46.151  16.728 -26.181  0.00  0.00    +0.000 HD
ENDBRANCH  27  28
BRANCH  27  30
ATOM     30  C   UNL     1     -43.233  16.854 -27.155  0.00  0.00    +0.000 C 
BRANCH  30  31
ATOM     31  O   UNL     1     -43.100  15.554 -27.643  0.00  0.00    +0.000 OA
ATOM     32  H   UNL     1     -42.173  15.277 -27.573  0.00  0.00    +0.000 HD
ENDBRANCH  30  31
ENDBRANCH  27  30
ENDBRANCH  24  27
ENDBRANCH  21  24
ENDBRANCH  20  21
ENDBRANCH  17  20
TORSDOF 9
ENDMDL
