MODEL 1
REMARK VINA RESULT:      -5.9      0.000      0.000
REMARK  Name = ZINC000012786823
REMARK  2 active torsions:
REMARK  status: ('A' for Active; 'I' for Inactive)
REMARK    1  A    between atoms: C_1  and  C_15
REMARK    2  A    between atoms: N_13  and  C_21
REMARK                            x       y       z     vdW  Elec       q    Type
REMARK                         _______ _______ _______ _____ _____    ______ ____
ROOT
ATOM      1  C   UNL     1     -43.790  -4.721 -32.596  0.00  0.00    +0.000 A 
ATOM      2  C   UNL     1     -42.611  -5.467 -32.477  0.00  0.00    +0.000 A 
ATOM      3  C   UNL     1     -41.389  -4.825 -32.276  0.00  0.00    +0.000 A 
ATOM      4  O   UNL     1     -40.335  -5.504 -32.165  0.00  0.00    +0.000 OA
ATOM      5  N   UNL     1     -41.333  -3.471 -32.200  0.00  0.00    +0.000 N 
ATOM      6  C   UNL     1     -42.449  -2.705 -32.314  0.00  0.00    +0.000 A 
ATOM      7  C   UNL     1     -42.344  -1.313 -32.224  0.00  0.00    +0.000 A 
ATOM      8  C   UNL     1     -43.486  -0.515 -32.329  0.00  0.00    +0.000 A 
ATOM      9  C   UNL     1     -44.737  -1.105 -32.522  0.00  0.00    +0.000 A 
ATOM     10  C   UNL     1     -44.850  -2.495 -32.615  0.00  0.00    +0.000 A 
ATOM     11  C   UNL     1     -43.711  -3.311 -32.519  0.00  0.00    +0.000 A 
ATOM     12  H   UNL     1     -40.462  -3.033 -32.059  0.00  0.00    +0.000 HD
ENDROOT
BRANCH   1  15
ATOM     13  N   UNL     1     -45.808  -6.053 -31.769  0.00  0.00    +0.000 N 
ATOM     14  C   UNL     1     -46.870  -7.001 -32.084  0.00  0.00    +0.000 C 
ATOM     15  C   UNL     1     -45.069  -5.436 -32.841  0.00  0.00    +0.000 C 
ATOM     16  O   UNL     1     -45.507  -5.521 -34.021  0.00  0.00    +0.000 OA
BRANCH  13  21
ATOM     17  C   UNL     1     -46.419  -7.327 -27.158  0.00  0.00    +0.000 C 
ATOM     18  C   UNL     1     -45.719  -6.010 -27.456  0.00  0.00    +0.000 C 
ATOM     19  C   UNL     1     -46.645  -5.042 -28.197  0.00  0.00    +0.000 C 
ATOM     20  C   UNL     1     -46.903  -5.495 -29.633  0.00  0.00    +0.000 C 
ATOM     21  C   UNL     1     -45.579  -5.664 -30.377  0.00  0.00    +0.000 C 
ATOM     22  C   UNL     1     -44.689  -6.683 -29.668  0.00  0.00    +0.000 C 
ATOM     23  C   UNL     1     -44.418  -6.237 -28.232  0.00  0.00    +0.000 C 
ENDBRANCH  13  21
ENDBRANCH   1  15
TORSDOF 2
ENDMDL
MODEL 2
REMARK VINA RESULT:      -5.8      3.284      6.147
REMARK  Name = ZINC000012786823
REMARK  2 active torsions:
REMARK  status: ('A' for Active; 'I' for Inactive)
REMARK    1  A    between atoms: C_1  and  C_15
REMARK    2  A    between atoms: N_13  and  C_21
REMARK                            x       y       z     vdW  Elec       q    Type
REMARK                         _______ _______ _______ _____ _____    ______ ____
ROOT
ATOM      1  C   UNL     1     -44.332  -4.729 -33.184  0.00  0.00    +0.000 A 
ATOM      2  C   UNL     1     -45.710  -4.829 -33.415  0.00  0.00    +0.000 A 
ATOM      3  C   UNL     1     -46.479  -3.680 -33.600  0.00  0.00    +0.000 A 
ATOM      4  O   UNL     1     -47.715  -3.781 -33.811  0.00  0.00    +0.000 OA
ATOM      5  N   UNL     1     -45.898  -2.454 -33.551  0.00  0.00    +0.000 N 
ATOM      6  C   UNL     1     -44.567  -2.306 -33.325  0.00  0.00    +0.000 A 
ATOM      7  C   UNL     1     -44.011  -1.024 -33.288  0.00  0.00    +0.000 A 
ATOM      8  C   UNL     1     -42.641  -0.859 -33.068  0.00  0.00    +0.000 A 
ATOM      9  C   UNL     1     -41.822  -1.975 -32.885  0.00  0.00    +0.000 A 
ATOM     10  C   UNL     1     -42.370  -3.260 -32.919  0.00  0.00    +0.000 A 
ATOM     11  C   UNL     1     -43.746  -3.443 -33.132  0.00  0.00    +0.000 A 
ATOM     12  H   UNL     1     -46.455  -1.653 -33.682  0.00  0.00    +0.000 HD
ENDROOT
BRANCH   1  15
ATOM     13  N   UNL     1     -43.056  -6.762 -34.059  0.00  0.00    +0.000 N 
ATOM     14  C   UNL     1     -42.578  -8.117 -33.809  0.00  0.00    +0.000 C 
ATOM     15  C   UNL     1     -43.551  -5.972 -32.961  0.00  0.00    +0.000 C 
ATOM     16  O   UNL     1     -43.332  -6.354 -31.779  0.00  0.00    +0.000 OA
BRANCH  13  21
ATOM     17  C   UNL     1     -40.783  -7.096 -38.300  0.00  0.00    +0.000 C 
ATOM     18  C   UNL     1     -41.821  -5.999 -38.122  0.00  0.00    +0.000 C 
ATOM     19  C   UNL     1     -41.413  -5.020 -37.018  0.00  0.00    +0.000 C 
ATOM     20  C   UNL     1     -41.514  -5.658 -35.633  0.00  0.00    +0.000 C 
ATOM     21  C   UNL     1     -42.928  -6.188 -35.399  0.00  0.00    +0.000 C 
ATOM     22  C   UNL     1     -43.300  -7.216 -36.467  0.00  0.00    +0.000 C 
ATOM     23  C   UNL     1     -43.210  -6.587 -37.857  0.00  0.00    +0.000 C 
ENDBRANCH  13  21
ENDBRANCH   1  15
TORSDOF 2
ENDMDL
MODEL 3
REMARK VINA RESULT:      -5.8     13.866     16.638
REMARK  Name = ZINC000012786823
REMARK  2 active torsions:
REMARK  status: ('A' for Active; 'I' for Inactive)
REMARK    1  A    between atoms: C_1  and  C_15
REMARK    2  A    between atoms: N_13  and  C_21
REMARK                            x       y       z     vdW  Elec       q    Type
REMARK                         _______ _______ _______ _____ _____    ______ ____
ROOT
ATOM      1  C   UNL     1     -44.725 -18.827 -21.141  0.00  0.00    +0.000 A 
ATOM      2  C   UNL     1     -43.547 -19.210 -20.485  0.00  0.00    +0.000 A 
ATOM      3  C   UNL     1     -42.498 -19.785 -21.201  0.00  0.00    +0.000 A 
ATOM      4  O   UNL     1     -41.443 -20.122 -20.603  0.00  0.00    +0.000 OA
ATOM      5  N   UNL     1     -42.611 -19.984 -22.539  0.00  0.00    +0.000 N 
ATOM      6  C   UNL     1     -43.734 -19.634 -23.218  0.00  0.00    +0.000 A 
ATOM      7  C   UNL     1     -43.804 -19.853 -24.597  0.00  0.00    +0.000 A 
ATOM      8  C   UNL     1     -44.950 -19.486 -25.309  0.00  0.00    +0.000 A 
ATOM      9  C   UNL     1     -46.028 -18.898 -24.644  0.00  0.00    +0.000 A 
ATOM     10  C   UNL     1     -45.967 -18.677 -23.266  0.00  0.00    +0.000 A 
ATOM     11  C   UNL     1     -44.826 -19.046 -22.534  0.00  0.00    +0.000 A 
ATOM     12  H   UNL     1     -41.861 -20.393 -23.030  0.00  0.00    +0.000 HD
ENDROOT
BRANCH   1  15
ATOM     13  N   UNL     1     -45.898 -16.837 -20.049  0.00  0.00    +0.000 N 
ATOM     14  C   UNL     1     -46.809 -16.361 -19.014  0.00  0.00    +0.000 C 
ATOM     15  C   UNL     1     -45.834 -18.246 -20.342  0.00  0.00    +0.000 C 
ATOM     16  O   UNL     1     -46.732 -19.011 -19.894  0.00  0.00    +0.000 OA
BRANCH  13  21
ATOM     17  C   UNL     1     -45.665 -12.248 -21.512  0.00  0.00    +0.000 C 
ATOM     18  C   UNL     1     -44.585 -13.210 -21.981  0.00  0.00    +0.000 C 
ATOM     19  C   UNL     1     -45.176 -14.340 -22.828  0.00  0.00    +0.000 C 
ATOM     20  C   UNL     1     -45.997 -15.311 -21.981  0.00  0.00    +0.000 C 
ATOM     21  C   UNL     1     -45.142 -15.869 -20.844  0.00  0.00    +0.000 C 
ATOM     22  C   UNL     1     -44.613 -14.739 -19.963  0.00  0.00    +0.000 C 
ATOM     23  C   UNL     1     -43.784 -13.764 -20.799  0.00  0.00    +0.000 C 
ENDBRANCH  13  21
ENDBRANCH   1  15
TORSDOF 2
ENDMDL
