MODEL 1
REMARK VINA RESULT:      -7.3      0.000      0.000
REMARK  Name = ZINC000100138715
REMARK  4 active torsions:
REMARK  status: ('A' for Active; 'I' for Inactive)
REMARK    1  A    between atoms: C_1  and  C_13
REMARK    2  A    between atoms: C_6  and  C_21
REMARK    3  A    between atoms: C_16  and  O_17
REMARK    4  A    between atoms: C_21  and  C_22
REMARK                            x       y       z     vdW  Elec       q    Type
REMARK                         _______ _______ _______ _____ _____    ______ ____
ROOT
ATOM      1  C   UNL     1     -44.856  -6.843 -31.844  0.00  0.00    +0.000 C 
ATOM      2  C   UNL     1     -45.274  -6.912 -33.302  0.00  0.00    +0.000 C 
ATOM      3  C   UNL     1     -46.601  -6.170 -33.412  0.00  0.00    +0.000 C 
ATOM      4  C   UNL     1     -46.770  -5.383 -32.125  0.00  0.00    +0.000 C 
ATOM      5  N   UNL     1     -45.719  -5.844 -31.241  0.00  0.00    +0.000 N 
ATOM      6  C   UNL     1     -45.575  -5.390 -29.889  0.00  0.00    +0.000 C 
ATOM      7  O   UNL     1     -44.508  -5.613 -29.257  0.00  0.00    +0.000 OA
ENDROOT
BRANCH   1  13
ATOM      8  C   UNL     1     -44.941 -13.739 -29.415  0.00  0.00    +0.000 C 
ATOM      9  C   UNL     1     -45.289 -12.296 -29.565  0.00  0.00    +0.000 A 
ATOM     10  N   UNL     1     -44.620 -11.552 -30.495  0.00  0.00    +0.000 NA
ATOM     11  C   UNL     1     -44.931 -10.242 -30.638  0.00  0.00    +0.000 A 
ATOM     12  C   UNL     1     -44.365  -9.335 -31.509  0.00  0.00    +0.000 A 
ATOM     13  C   UNL     1     -45.075  -8.173 -31.191  0.00  0.00    +0.000 A 
ATOM     14  N   UNL     1     -45.985  -8.389 -30.210  0.00  0.00    +0.000 NA
ATOM     15  N   UNL     1     -45.874  -9.662 -29.890  0.00  0.00    +0.000 N 
ATOM     16  C   UNL     1     -46.576 -10.334 -28.948  0.00  0.00    +0.000 A 
ATOM     17  C   UNL     1     -46.293 -11.698 -28.760  0.00  0.00    +0.000 A 
ATOM     18  C   UNL     1     -47.037 -12.486 -27.730  0.00  0.00    +0.000 C 
BRANCH  16  19
ATOM     19  O   UNL     1     -47.549  -9.686 -28.192  0.00  0.00    +0.000 OA
ATOM     20  H   UNL     1     -47.311  -9.251 -27.398  0.00  0.00    +0.000 HD
ENDBRANCH  16  19
ENDBRANCH   1  13
BRANCH   6  21
ATOM     21  C   UNL     1     -46.718  -4.739 -29.182  0.00  0.00    +0.000 C 
BRANCH  21  22
ATOM     22  C   UNL     1     -46.845  -5.316 -27.805  0.00  0.00    +0.000 A 
ATOM     23  N   UNL     1     -46.725  -6.661 -27.640  0.00  0.00    +0.000 NA
ATOM     24  N   UNL     1     -46.777  -7.231 -26.435  0.00  0.00    +0.000 N 
ATOM     25  C   UNL     1     -46.948  -6.497 -25.305  0.00  0.00    +0.000 A 
ATOM     26  O   UNL     1     -46.974  -7.075 -24.186  0.00  0.00    +0.000 OA
ATOM     27  C   UNL     1     -47.082  -5.106 -25.402  0.00  0.00    +0.000 A 
ATOM     28  C   UNL     1     -47.255  -4.309 -24.261  0.00  0.00    +0.000 A 
ATOM     29  C   UNL     1     -47.375  -2.922 -24.384  0.00  0.00    +0.000 A 
ATOM     30  C   UNL     1     -47.322  -2.322 -25.644  0.00  0.00    +0.000 A 
ATOM     31  C   UNL     1     -47.148  -3.108 -26.786  0.00  0.00    +0.000 A 
ATOM     32  C   UNL     1     -47.027  -4.501 -26.677  0.00  0.00    +0.000 A 
ATOM     33  H   UNL     1     -46.690  -8.209 -26.363  0.00  0.00    +0.000 HD
ENDBRANCH  21  22
ENDBRANCH   6  21
TORSDOF 4
ENDMDL
MODEL 2
REMARK VINA RESULT:      -7.3      2.975      7.204
REMARK  Name = ZINC000100138715
REMARK  4 active torsions:
REMARK  status: ('A' for Active; 'I' for Inactive)
REMARK    1  A    between atoms: C_1  and  C_13
REMARK    2  A    between atoms: C_6  and  C_21
REMARK    3  A    between atoms: C_16  and  O_17
REMARK    4  A    between atoms: C_21  and  C_22
REMARK                            x       y       z     vdW  Elec       q    Type
REMARK                         _______ _______ _______ _____ _____    ______ ____
ROOT
ATOM      1  C   UNL     1     -45.820  -7.993 -28.892  0.00  0.00    +0.000 C 
ATOM      2  C   UNL     1     -46.782  -9.168 -28.860  0.00  0.00    +0.000 C 
ATOM      3  C   UNL     1     -47.756  -8.968 -30.015  0.00  0.00    +0.000 C 
ATOM      4  C   UNL     1     -47.158  -7.898 -30.911  0.00  0.00    +0.000 C 
ATOM      5  N   UNL     1     -46.032  -7.356 -30.179  0.00  0.00    +0.000 N 
ATOM      6  C   UNL     1     -45.236  -6.264 -30.659  0.00  0.00    +0.000 C 
ATOM      7  O   UNL     1     -44.125  -6.008 -30.122  0.00  0.00    +0.000 OA
ENDROOT
BRANCH   1  13
ATOM      8  C   UNL     1     -47.023  -4.299 -22.698  0.00  0.00    +0.000 C 
ATOM      9  C   UNL     1     -46.934  -4.614 -24.154  0.00  0.00    +0.000 A 
ATOM     10  N   UNL     1     -46.520  -5.858 -24.533  0.00  0.00    +0.000 NA
ATOM     11  C   UNL     1     -46.438  -6.152 -25.853  0.00  0.00    +0.000 A 
ATOM     12  C   UNL     1     -46.036  -7.342 -26.425  0.00  0.00    +0.000 A 
ATOM     13  C   UNL     1     -46.148  -7.039 -27.785  0.00  0.00    +0.000 A 
ATOM     14  N   UNL     1     -46.582  -5.772 -27.989  0.00  0.00    +0.000 NA
ATOM     15  N   UNL     1     -46.750  -5.253 -26.789  0.00  0.00    +0.000 N 
ATOM     16  C   UNL     1     -47.166  -3.999 -26.490  0.00  0.00    +0.000 A 
ATOM     17  C   UNL     1     -47.270  -3.643 -25.134  0.00  0.00    +0.000 A 
ATOM     18  C   UNL     1     -47.719  -2.271 -24.749  0.00  0.00    +0.000 C 
BRANCH  16  19
ATOM     19  O   UNL     1     -47.479  -3.096 -27.502  0.00  0.00    +0.000 OA
ATOM     20  H   UNL     1     -48.258  -3.213 -28.009  0.00  0.00    +0.000 HD
ENDBRANCH  16  19
ENDBRANCH   1  13
BRANCH   6  21
ATOM     21  C   UNL     1     -45.753  -5.361 -31.729  0.00  0.00    +0.000 C 
BRANCH  21  22
ATOM     22  C   UNL     1     -44.606  -4.852 -32.548  0.00  0.00    +0.000 A 
ATOM     23  N   UNL     1     -43.888  -5.731 -33.297  0.00  0.00    +0.000 NA
ATOM     24  N   UNL     1     -42.889  -5.334 -34.087  0.00  0.00    +0.000 N 
ATOM     25  C   UNL     1     -42.538  -4.026 -34.189  0.00  0.00    +0.000 A 
ATOM     26  O   UNL     1     -41.599  -3.693 -34.961  0.00  0.00    +0.000 OA
ATOM     27  C   UNL     1     -43.234  -3.065 -33.443  0.00  0.00    +0.000 A 
ATOM     28  C   UNL     1     -42.908  -1.704 -33.523  0.00  0.00    +0.000 A 
ATOM     29  C   UNL     1     -43.624  -0.765 -32.776  0.00  0.00    +0.000 A 
ATOM     30  C   UNL     1     -44.670  -1.178 -31.948  0.00  0.00    +0.000 A 
ATOM     31  C   UNL     1     -45.004  -2.532 -31.864  0.00  0.00    +0.000 A 
ATOM     32  C   UNL     1     -44.291  -3.485 -32.607  0.00  0.00    +0.000 A 
ATOM     33  H   UNL     1     -42.394  -6.006 -34.607  0.00  0.00    +0.000 HD
ENDBRANCH  21  22
ENDBRANCH   6  21
TORSDOF 4
ENDMDL
MODEL 3
REMARK VINA RESULT:      -7.3      9.816     13.533
REMARK  Name = ZINC000100138715
REMARK  4 active torsions:
REMARK  status: ('A' for Active; 'I' for Inactive)
REMARK    1  A    between atoms: C_1  and  C_13
REMARK    2  A    between atoms: C_6  and  C_21
REMARK    3  A    between atoms: C_16  and  O_17
REMARK    4  A    between atoms: C_21  and  C_22
REMARK                            x       y       z     vdW  Elec       q    Type
REMARK                         _______ _______ _______ _____ _____    ______ ____
ROOT
ATOM      1  C   UNL     1     -44.885 -16.783 -26.041  0.00  0.00    +0.000 C 
ATOM      2  C   UNL     1     -43.838 -16.009 -26.824  0.00  0.00    +0.000 C 
ATOM      3  C   UNL     1     -42.560 -16.839 -26.783  0.00  0.00    +0.000 C 
ATOM      4  C   UNL     1     -42.951 -18.223 -26.298  0.00  0.00    +0.000 C 
ATOM      5  N   UNL     1     -44.328 -18.112 -25.861  0.00  0.00    +0.000 N 
ATOM      6  C   UNL     1     -45.052 -19.196 -25.265  0.00  0.00    +0.000 C 
ATOM      7  O   UNL     1     -46.306 -19.131 -25.149  0.00  0.00    +0.000 OA
ENDROOT
BRANCH   1  13
ATOM      8  C   UNL     1     -47.139 -13.289 -20.028  0.00  0.00    +0.000 C 
ATOM      9  C   UNL     1     -46.279 -14.077 -20.957  0.00  0.00    +0.000 A 
ATOM     10  N   UNL     1     -46.739 -14.339 -22.216  0.00  0.00    +0.000 NA
ATOM     11  C   UNL     1     -45.964 -15.053 -23.066  0.00  0.00    +0.000 A 
ATOM     12  C   UNL     1     -46.258 -15.421 -24.363  0.00  0.00    +0.000 A 
ATOM     13  C   UNL     1     -45.107 -16.133 -24.710  0.00  0.00    +0.000 A 
ATOM     14  N   UNL     1     -44.211 -16.176 -23.694  0.00  0.00    +0.000 NA
ATOM     15  N   UNL     1     -44.763 -15.508 -22.701  0.00  0.00    +0.000 N 
ATOM     16  C   UNL     1     -44.241 -15.291 -21.470  0.00  0.00    +0.000 A 
ATOM     17  C   UNL     1     -45.005 -14.553 -20.550  0.00  0.00    +0.000 A 
ATOM     18  C   UNL     1     -44.478 -14.289 -19.176  0.00  0.00    +0.000 C 
BRANCH  16  19
ATOM     19  O   UNL     1     -42.984 -15.786 -21.136  0.00  0.00    +0.000 OA
ATOM     20  H   UNL     1     -42.548 -16.382 -21.712  0.00  0.00    +0.000 HD
ENDBRANCH  16  19
ENDBRANCH   1  13
BRANCH   6  21
ATOM     21  C   UNL     1     -44.327 -20.367 -24.688  0.00  0.00    +0.000 C 
BRANCH  21  22
ATOM     22  C   UNL     1     -43.757 -19.992 -23.355  0.00  0.00    +0.000 A 
ATOM     23  N   UNL     1     -44.441 -19.117 -22.567  0.00  0.00    +0.000 NA
ATOM     24  N   UNL     1     -44.013 -18.783 -21.349  0.00  0.00    +0.000 N 
ATOM     25  C   UNL     1     -42.873 -19.303 -20.825  0.00  0.00    +0.000 A 
ATOM     26  O   UNL     1     -42.515 -18.973 -19.663  0.00  0.00    +0.000 OA
ATOM     27  C   UNL     1     -42.118 -20.208 -21.582  0.00  0.00    +0.000 A 
ATOM     28  C   UNL     1     -40.937 -20.773 -21.079  0.00  0.00    +0.000 A 
ATOM     29  C   UNL     1     -40.207 -21.681 -21.851  0.00  0.00    +0.000 A 
ATOM     30  C   UNL     1     -40.652 -22.033 -23.127  0.00  0.00    +0.000 A 
ATOM     31  C   UNL     1     -41.828 -21.477 -23.637  0.00  0.00    +0.000 A 
ATOM     32  C   UNL     1     -42.569 -20.562 -22.873  0.00  0.00    +0.000 A 
ATOM     33  H   UNL     1     -44.537 -18.143 -20.816  0.00  0.00    +0.000 HD
ENDBRANCH  21  22
ENDBRANCH   6  21
TORSDOF 4
ENDMDL
