MODEL 1
REMARK VINA RESULT:      -6.9      0.000      0.000
REMARK  Name = ZINC000031809732
REMARK  3 active torsions:
REMARK  status: ('A' for Active; 'I' for Inactive)
REMARK    1  A    between atoms: C_1  and  C_26
REMARK    2  A    between atoms: C_24  and  O_33
REMARK    3  A    between atoms: C_29  and  O_30
REMARK                            x       y       z     vdW  Elec       q    Type
REMARK                         _______ _______ _______ _____ _____    ______ ____
ROOT
ATOM      1  C   UNL     1     -45.633 -15.764 -19.987  0.00  0.00    +0.000 C 
ATOM      2  S   UNL     1     -47.007 -14.944 -19.129  0.00  0.00    +0.000 S 
ATOM      3  C   UNL     1     -46.055 -13.416 -19.112  0.00  0.00    +0.000 C 
ATOM      4  C   UNL     1     -46.461 -12.585 -20.270  0.00  0.00    +0.000 C 
ATOM      5  O   UNL     1     -46.931 -11.438 -20.052  0.00  0.00    +0.000 OA
ATOM      6  N   UNL     1     -46.331 -13.033 -21.623  0.00  0.00    +0.000 N 
ATOM      7  C   UNL     1     -45.872 -14.289 -22.153  0.00  0.00    +0.000 A 
ATOM      8  C   UNL     1     -45.639 -15.496 -21.482  0.00  0.00    +0.000 A 
ATOM      9  C   UNL     1     -45.278 -16.369 -22.515  0.00  0.00    +0.000 A 
ATOM     10  C   UNL     1     -44.825 -17.782 -22.400  0.00  0.00    +0.000 C 
ATOM     11  N   UNL     1     -45.338 -15.738 -23.702  0.00  0.00    +0.000 NA
ATOM     12  N   UNL     1     -45.690 -14.485 -23.477  0.00  0.00    +0.000 N 
ATOM     13  H   UNL     1     -46.597 -12.373 -22.303  0.00  0.00    +0.000 HD
ATOM     14  C   UNL     1     -45.867 -13.534 -24.537  0.00  0.00    +0.000 A 
ATOM     15  N   UNL     1     -46.362 -13.939 -25.745  0.00  0.00    +0.000 NA
ATOM     16  C   UNL     1     -46.517 -13.062 -26.787  0.00  0.00    +0.000 A 
ATOM     17  N   UNL     1     -46.162 -11.750 -26.648  0.00  0.00    +0.000 NA
ATOM     18  C   UNL     1     -45.659 -11.348 -25.456  0.00  0.00    +0.000 A 
ATOM     19  N   UNL     1     -45.205 -10.127 -25.152  0.00  0.00    +0.000 N 
ATOM     20  C   UNL     1     -44.762 -10.288 -23.875  0.00  0.00    +0.000 A 
ATOM     21  N   UNL     1     -44.919 -11.552 -23.392  0.00  0.00    +0.000 NA
ATOM     22  C   UNL     1     -45.499 -12.194 -24.416  0.00  0.00    +0.000 A 
ATOM     23  H   UNL     1     -45.197  -9.316 -25.709  0.00  0.00    +0.000 HD
ENDROOT
BRANCH   1  26
ATOM     24  C   UNL     1     -44.419 -19.156 -18.724  0.00  0.00    +0.000 A 
ATOM     25  C   UNL     1     -44.435 -17.799 -19.083  0.00  0.00    +0.000 A 
ATOM     26  C   UNL     1     -45.599 -17.211 -19.599  0.00  0.00    +0.000 A 
ATOM     27  C   UNL     1     -46.749 -17.988 -19.762  0.00  0.00    +0.000 A 
ATOM     28  C   UNL     1     -46.741 -19.340 -19.409  0.00  0.00    +0.000 A 
ATOM     29  C   UNL     1     -45.582 -19.923 -18.889  0.00  0.00    +0.000 A 
BRANCH  29  30
ATOM     30  O   UNL     1     -45.589 -21.268 -18.541  0.00  0.00    +0.000 OA
ATOM     31  H   UNL     1     -45.928 -21.534 -17.709  0.00  0.00    +0.000 HD
ENDBRANCH  29  30
BRANCH  24  33
ATOM     32  C   UNL     1     -42.275 -19.031 -17.494  0.00  0.00    +0.000 C 
ATOM     33  O   UNL     1     -43.269 -19.758 -18.203  0.00  0.00    +0.000 OA
ENDBRANCH  24  33
ENDBRANCH   1  26
TORSDOF 3
ENDMDL
MODEL 2
REMARK VINA RESULT:      -6.8      2.635      3.895
REMARK  Name = ZINC000031809732
REMARK  3 active torsions:
REMARK  status: ('A' for Active; 'I' for Inactive)
REMARK    1  A    between atoms: C_1  and  C_26
REMARK    2  A    between atoms: C_24  and  O_33
REMARK    3  A    between atoms: C_29  and  O_30
REMARK                            x       y       z     vdW  Elec       q    Type
REMARK                         _______ _______ _______ _____ _____    ______ ____
ROOT
ATOM      1  C   UNL     1     -44.929 -17.180 -23.385  0.00  0.00    +0.000 C 
ATOM      2  S   UNL     1     -43.441 -17.516 -24.369  0.00  0.00    +0.000 S 
ATOM      3  C   UNL     1     -44.453 -17.518 -25.858  0.00  0.00    +0.000 C 
ATOM      4  C   UNL     1     -44.396 -16.174 -26.479  0.00  0.00    +0.000 C 
ATOM      5  O   UNL     1     -43.960 -16.073 -27.655  0.00  0.00    +0.000 OA
ATOM      6  N   UNL     1     -44.826 -14.992 -25.797  0.00  0.00    +0.000 N 
ATOM      7  C   UNL     1     -45.322 -14.811 -24.458  0.00  0.00    +0.000 A 
ATOM      8  C   UNL     1     -45.307 -15.709 -23.385  0.00  0.00    +0.000 A 
ATOM      9  C   UNL     1     -45.855 -14.960 -22.337  0.00  0.00    +0.000 A 
ATOM     10  C   UNL     1     -46.177 -15.420 -20.958  0.00  0.00    +0.000 C 
ATOM     11  N   UNL     1     -46.128 -13.710 -22.750  0.00  0.00    +0.000 NA
ATOM     12  N   UNL     1     -45.811 -13.627 -24.029  0.00  0.00    +0.000 N 
ATOM     13  H   UNL     1     -44.776 -14.167 -26.332  0.00  0.00    +0.000 HD
ATOM     14  C   UNL     1     -45.958 -12.414 -24.782  0.00  0.00    +0.000 A 
ATOM     15  N   UNL     1     -45.751 -11.205 -24.179  0.00  0.00    +0.000 NA
ATOM     16  C   UNL     1     -45.912 -10.027 -24.862  0.00  0.00    +0.000 A 
ATOM     17  N   UNL     1     -46.303 -10.031 -26.171  0.00  0.00    +0.000 NA
ATOM     18  C   UNL     1     -46.522 -11.228 -26.766  0.00  0.00    +0.000 A 
ATOM     19  N   UNL     1     -46.963 -11.430 -28.014  0.00  0.00    +0.000 N 
ATOM     20  C   UNL     1     -47.068 -12.786 -28.072  0.00  0.00    +0.000 A 
ATOM     21  N   UNL     1     -46.719 -13.416 -26.916  0.00  0.00    +0.000 NA
ATOM     22  C   UNL     1     -46.369 -12.400 -26.115  0.00  0.00    +0.000 A 
ATOM     23  H   UNL     1     -47.158 -10.766 -28.713  0.00  0.00    +0.000 HD
ENDROOT
BRANCH   1  26
ATOM     24  C   UNL     1     -43.449 -18.275 -20.040  0.00  0.00    +0.000 A 
ATOM     25  C   UNL     1     -43.576 -17.690 -21.310  0.00  0.00    +0.000 A 
ATOM     26  C   UNL     1     -44.776 -17.799 -22.028  0.00  0.00    +0.000 A 
ATOM     27  C   UNL     1     -45.850 -18.501 -21.474  0.00  0.00    +0.000 A 
ATOM     28  C   UNL     1     -45.730 -19.086 -20.211  0.00  0.00    +0.000 A 
ATOM     29  C   UNL     1     -44.535 -18.973 -19.494  0.00  0.00    +0.000 A 
BRANCH  29  30
ATOM     30  O   UNL     1     -44.432 -19.560 -18.239  0.00  0.00    +0.000 OA
ATOM     31  H   UNL     1     -44.539 -20.487 -18.145  0.00  0.00    +0.000 HD
ENDBRANCH  29  30
BRANCH  24  33
ATOM     32  C   UNL     1     -41.191 -19.098 -19.448  0.00  0.00    +0.000 C 
ATOM     33  O   UNL     1     -42.261 -18.174 -19.308  0.00  0.00    +0.000 OA
ENDBRANCH  24  33
ENDBRANCH   1  26
TORSDOF 3
ENDMDL
MODEL 3
REMARK VINA RESULT:      -6.7      9.556     12.979
REMARK  Name = ZINC000031809732
REMARK  3 active torsions:
REMARK  status: ('A' for Active; 'I' for Inactive)
REMARK    1  A    between atoms: C_1  and  C_26
REMARK    2  A    between atoms: C_24  and  O_33
REMARK    3  A    between atoms: C_29  and  O_30
REMARK                            x       y       z     vdW  Elec       q    Type
REMARK                         _______ _______ _______ _____ _____    ______ ____
ROOT
ATOM      1  C   UNL     1     -46.316  -6.160 -29.073  0.00  0.00    +0.000 C 
ATOM      2  S   UNL     1     -47.451  -6.563 -30.430  0.00  0.00    +0.000 S 
ATOM      3  C   UNL     1     -47.672  -4.803 -30.739  0.00  0.00    +0.000 C 
ATOM      4  C   UNL     1     -46.746  -4.385 -31.817  0.00  0.00    +0.000 C 
ATOM      5  O   UNL     1     -47.231  -3.886 -32.866  0.00  0.00    +0.000 OA
ATOM      6  N   UNL     1     -45.326  -4.518 -31.708  0.00  0.00    +0.000 N 
ATOM      7  C   UNL     1     -44.516  -5.081 -30.660  0.00  0.00    +0.000 A 
ATOM      8  C   UNL     1     -44.910  -5.853 -29.560  0.00  0.00    +0.000 A 
ATOM      9  C   UNL     1     -43.695  -6.164 -28.939  0.00  0.00    +0.000 A 
ATOM     10  C   UNL     1     -43.485  -6.894 -27.659  0.00  0.00    +0.000 C 
ATOM     11  N   UNL     1     -42.668  -5.653 -29.640  0.00  0.00    +0.000 NA
ATOM     12  N   UNL     1     -43.168  -4.997 -30.672  0.00  0.00    +0.000 N 
ATOM     13  H   UNL     1     -44.818  -4.166 -32.475  0.00  0.00    +0.000 HD
ATOM     14  C   UNL     1     -42.339  -4.343 -31.644  0.00  0.00    +0.000 A 
ATOM     15  N   UNL     1     -41.130  -4.882 -31.985  0.00  0.00    +0.000 NA
ATOM     16  C   UNL     1     -40.301  -4.267 -32.888  0.00  0.00    +0.000 A 
ATOM     17  N   UNL     1     -40.659  -3.080 -33.463  0.00  0.00    +0.000 NA
ATOM     18  C   UNL     1     -41.850  -2.538 -33.115  0.00  0.00    +0.000 A 
ATOM     19  N   UNL     1     -42.342  -1.362 -33.525  0.00  0.00    +0.000 N 
ATOM     20  C   UNL     1     -43.511  -1.276 -32.834  0.00  0.00    +0.000 A 
ATOM     21  N   UNL     1     -43.750  -2.342 -32.019  0.00  0.00    +0.000 NA
ATOM     22  C   UNL     1     -42.683  -3.125 -32.231  0.00  0.00    +0.000 A 
ATOM     23  H   UNL     1     -41.956  -0.723 -34.166  0.00  0.00    +0.000 HD
ENDROOT
BRANCH   1  26
ATOM     24  C   UNL     1     -46.534  -9.564 -27.358  0.00  0.00    +0.000 A 
ATOM     25  C   UNL     1     -46.449  -8.582 -28.358  0.00  0.00    +0.000 A 
ATOM     26  C   UNL     1     -46.407  -7.221 -28.018  0.00  0.00    +0.000 A 
ATOM     27  C   UNL     1     -46.455  -6.845 -26.674  0.00  0.00    +0.000 A 
ATOM     28  C   UNL     1     -46.540  -7.817 -25.674  0.00  0.00    +0.000 A 
ATOM     29  C   UNL     1     -46.578  -9.172 -26.012  0.00  0.00    +0.000 A 
BRANCH  29  30
ATOM     30  O   UNL     1     -46.662 -10.127 -25.007  0.00  0.00    +0.000 OA
ATOM     31  H   UNL     1     -47.404 -10.140 -24.434  0.00  0.00    +0.000 HD
ENDBRANCH  29  30
BRANCH  24  33
ATOM     32  C   UNL     1     -46.488 -11.405 -29.012  0.00  0.00    +0.000 C 
ATOM     33  O   UNL     1     -46.574 -10.926 -27.677  0.00  0.00    +0.000 OA
ENDBRANCH  24  33
ENDBRANCH   1  26
TORSDOF 3
ENDMDL
