MODEL 1
REMARK VINA RESULT:      -6.1      0.000      0.000
REMARK  Name = ZINC000021523792 ZINC21523792
REMARK  6 active torsions:
REMARK  status: ('A' for Active; 'I' for Inactive)
REMARK    1  A    between atoms: C_1  and  C_24
REMARK    2  A    between atoms: C_22  and  O_28
REMARK    3  A    between atoms: C_27  and  O_31
REMARK    4  A    between atoms: O_28  and  C_30
REMARK    5  A    between atoms: O_31  and  C_32
REMARK    6  A    between atoms: C_32  and  C_33
REMARK                            x       y       z     vdW  Elec       q    Type
REMARK                         _______ _______ _______ _____ _____    ______ ____
ROOT
ATOM      1  C   UNL     1     -46.509  -7.091 -28.485  0.00  0.00    +0.000 C 
ATOM      2  C   UNL     1     -46.547  -6.288 -27.193  0.00  0.00    +0.000 A 
ATOM      3  C   UNL     1     -46.956  -4.961 -27.049  0.00  0.00    +0.000 A 
ATOM      4  N   UNL     1     -46.921  -4.595 -25.756  0.00  0.00    +0.000 NA
ATOM      5  N   UNL     1     -46.526  -5.638 -25.049  0.00  0.00    +0.000 N 
ATOM      6  C   UNL     1     -46.321  -6.694 -25.871  0.00  0.00    +0.000 A 
ATOM      7  N   UNL     1     -45.999  -8.003 -25.367  0.00  0.00    +0.000 N 
ATOM      8  C   UNL     1     -46.050  -9.275 -26.016  0.00  0.00    +0.000 C 
ATOM      9  O   UNL     1     -45.728 -10.305 -25.369  0.00  0.00    +0.000 OA
ATOM     10  C   UNL     1     -46.473  -9.425 -27.426  0.00  0.00    +0.000 C 
ATOM     11  S   UNL     1     -45.336  -8.477 -28.451  0.00  0.00    +0.000 S 
ATOM     12  C   UNL     1     -47.442  -4.042 -28.118  0.00  0.00    +0.000 C 
ATOM     13  H   UNL     1     -45.696  -8.025 -24.430  0.00  0.00    +0.000 HD
ATOM     14  C   UNL     1     -46.395  -5.600 -23.618  0.00  0.00    +0.000 A 
ATOM     15  N   UNL     1     -46.868  -4.527 -22.926  0.00  0.00    +0.000 NA
ATOM     16  C   UNL     1     -46.754  -4.458 -21.573  0.00  0.00    +0.000 A 
ATOM     17  C   UNL     1     -46.143  -5.496 -20.872  0.00  0.00    +0.000 A 
ATOM     18  C   UNL     1     -45.663  -6.586 -21.593  0.00  0.00    +0.000 A 
ATOM     19  N   UNL     1     -45.795  -6.620 -22.944  0.00  0.00    +0.000 NA
ATOM     20  C   UNL     1     -45.004  -7.714 -20.884  0.00  0.00    +0.000 C 
ATOM     21  C   UNL     1     -47.278  -3.274 -20.843  0.00  0.00    +0.000 C 
ENDROOT
BRANCH   1  24
ATOM     22  C   UNL     1     -44.689  -4.836 -30.940  0.00  0.00    +0.000 A 
ATOM     23  C   UNL     1     -44.993  -5.621 -29.821  0.00  0.00    +0.000 A 
ATOM     24  C   UNL     1     -46.228  -6.263 -29.704  0.00  0.00    +0.000 A 
ATOM     25  C   UNL     1     -47.184  -6.111 -30.714  0.00  0.00    +0.000 A 
ATOM     26  C   UNL     1     -46.899  -5.333 -31.834  0.00  0.00    +0.000 A 
ATOM     27  C   UNL     1     -45.656  -4.691 -31.967  0.00  0.00    +0.000 A 
BRANCH  22  28
ATOM     28  O   UNL     1     -43.422  -4.236 -30.972  0.00  0.00    +0.000 OA
BRANCH  28  30
ATOM     29  C   UNL     1     -41.871  -4.079 -32.794  0.00  0.00    +0.000 C 
ATOM     30  C   UNL     1     -42.258  -4.826 -31.536  0.00  0.00    +0.000 C 
ENDBRANCH  28  30
ENDBRANCH  22  28
BRANCH  27  31
ATOM     31  O   UNL     1     -45.383  -3.912 -33.100  0.00  0.00    +0.000 OA
BRANCH  31  32
ATOM     32  C   UNL     1     -45.822  -2.567 -33.256  0.00  0.00    +0.000 C 
BRANCH  32  33
ATOM     33  C   UNL     1     -44.789  -1.624 -32.740  0.00  0.00    +0.000 C 
ATOM     34  O   UNL     1     -43.923  -1.152 -33.520  0.00  0.00    +0.000 OA
ATOM     35  N   UNL     1     -44.768  -1.279 -31.361  0.00  0.00    +0.000 N 
ATOM     36  H   UNL     1     -45.445  -1.648 -30.750  0.00  0.00    +0.000 HD
ATOM     37  H   UNL     1     -44.075  -0.669 -31.018  0.00  0.00    +0.000 HD
ENDBRANCH  32  33
ENDBRANCH  31  32
ENDBRANCH  27  31
ENDBRANCH   1  24
TORSDOF 6
ENDMDL
MODEL 2
REMARK VINA RESULT:      -6.0      7.361      9.805
REMARK  Name = ZINC000021523792 ZINC21523792
REMARK  6 active torsions:
REMARK  status: ('A' for Active; 'I' for Inactive)
REMARK    1  A    between atoms: C_1  and  C_24
REMARK    2  A    between atoms: C_22  and  O_28
REMARK    3  A    between atoms: C_27  and  O_31
REMARK    4  A    between atoms: O_28  and  C_30
REMARK    5  A    between atoms: O_31  and  C_32
REMARK    6  A    between atoms: C_32  and  C_33
REMARK                            x       y       z     vdW  Elec       q    Type
REMARK                         _______ _______ _______ _____ _____    ______ ____
ROOT
ATOM      1  C   UNL     1     -44.768 -15.971 -26.461  0.00  0.00    +0.000 C 
ATOM      2  C   UNL     1     -45.169 -15.549 -25.056  0.00  0.00    +0.000 A 
ATOM      3  C   UNL     1     -45.735 -14.328 -24.682  0.00  0.00    +0.000 A 
ATOM      4  N   UNL     1     -46.020 -14.322 -23.369  0.00  0.00    +0.000 NA
ATOM      5  N   UNL     1     -45.681 -15.500 -22.874  0.00  0.00    +0.000 N 
ATOM      6  C   UNL     1     -45.194 -16.285 -23.863  0.00  0.00    +0.000 A 
ATOM      7  N   UNL     1     -44.855 -17.667 -23.644  0.00  0.00    +0.000 N 
ATOM      8  C   UNL     1     -44.632 -18.718 -24.586  0.00  0.00    +0.000 C 
ATOM      9  O   UNL     1     -44.352 -19.869 -24.162  0.00  0.00    +0.000 OA
ATOM     10  C   UNL     1     -44.720 -18.501 -26.047  0.00  0.00    +0.000 C 
ATOM     11  S   UNL     1     -43.493 -17.264 -26.500  0.00  0.00    +0.000 S 
ATOM     12  C   UNL     1     -46.071 -13.177 -25.568  0.00  0.00    +0.000 C 
ATOM     13  H   UNL     1     -44.762 -17.927 -22.699  0.00  0.00    +0.000 HD
ATOM     14  C   UNL     1     -45.869 -15.843 -21.491  0.00  0.00    +0.000 A 
ATOM     15  N   UNL     1     -46.589 -15.018 -20.683  0.00  0.00    +0.000 NA
ATOM     16  C   UNL     1     -46.780 -15.310 -19.370  0.00  0.00    +0.000 A 
ATOM     17  C   UNL     1     -46.230 -16.471 -18.829  0.00  0.00    +0.000 A 
ATOM     18  C   UNL     1     -45.494 -17.306 -19.666  0.00  0.00    +0.000 A 
ATOM     19  N   UNL     1     -45.327 -16.980 -20.974  0.00  0.00    +0.000 NA
ATOM     20  C   UNL     1     -44.891 -18.553 -19.129  0.00  0.00    +0.000 C 
ATOM     21  C   UNL     1     -47.569 -14.390 -18.510  0.00  0.00    +0.000 C 
ENDROOT
BRANCH   1  24
ATOM     22  C   UNL     1     -44.802 -13.280 -29.140  0.00  0.00    +0.000 A 
ATOM     23  C   UNL     1     -45.183 -14.338 -28.306  0.00  0.00    +0.000 A 
ATOM     24  C   UNL     1     -44.317 -14.835 -27.329  0.00  0.00    +0.000 A 
ATOM     25  C   UNL     1     -43.042 -14.277 -27.188  0.00  0.00    +0.000 A 
ATOM     26  C   UNL     1     -42.646 -13.224 -28.011  0.00  0.00    +0.000 A 
ATOM     27  C   UNL     1     -43.513 -12.709 -28.989  0.00  0.00    +0.000 A 
BRANCH  22  28
ATOM     28  O   UNL     1     -45.742 -12.844 -30.086  0.00  0.00    +0.000 OA
BRANCH  28  30
ATOM     29  C   UNL     1     -46.652 -10.892 -29.032  0.00  0.00    +0.000 C 
ATOM     30  C   UNL     1     -46.957 -12.175 -29.775  0.00  0.00    +0.000 C 
ENDBRANCH  28  30
ENDBRANCH  22  28
BRANCH  27  31
ATOM     31  O   UNL     1     -43.102 -11.649 -29.808  0.00  0.00    +0.000 OA
BRANCH  31  32
ATOM     32  C   UNL     1     -42.535 -11.827 -31.102  0.00  0.00    +0.000 C 
BRANCH  32  33
ATOM     33  C   UNL     1     -43.227 -10.954 -32.093  0.00  0.00    +0.000 C 
ATOM     34  O   UNL     1     -42.568 -10.122 -32.767  0.00  0.00    +0.000 OA
ATOM     35  N   UNL     1     -44.637 -11.046 -32.258  0.00  0.00    +0.000 N 
ATOM     36  H   UNL     1     -45.154 -11.697 -31.730  0.00  0.00    +0.000 HD
ATOM     37  H   UNL     1     -45.096 -10.457 -32.900  0.00  0.00    +0.000 HD
ENDBRANCH  32  33
ENDBRANCH  31  32
ENDBRANCH  27  31
ENDBRANCH   1  24
TORSDOF 6
ENDMDL
MODEL 3
REMARK VINA RESULT:      -6.0      4.148      9.320
REMARK  Name = ZINC000021523792 ZINC21523792
REMARK  6 active torsions:
REMARK  status: ('A' for Active; 'I' for Inactive)
REMARK    1  A    between atoms: C_1  and  C_24
REMARK    2  A    between atoms: C_22  and  O_28
REMARK    3  A    between atoms: C_27  and  O_31
REMARK    4  A    between atoms: O_28  and  C_30
REMARK    5  A    between atoms: O_31  and  C_32
REMARK    6  A    between atoms: C_32  and  C_33
REMARK                            x       y       z     vdW  Elec       q    Type
REMARK                         _______ _______ _______ _____ _____    ______ ____
ROOT
ATOM      1  C   UNL     1     -46.322  -6.740 -30.754  0.00  0.00    +0.000 C 
ATOM      2  C   UNL     1     -44.915  -6.406 -31.227  0.00  0.00    +0.000 A 
ATOM      3  C   UNL     1     -43.919  -7.316 -31.587  0.00  0.00    +0.000 A 
ATOM      4  N   UNL     1     -42.822  -6.670 -32.017  0.00  0.00    +0.000 NA
ATOM      5  N   UNL     1     -43.070  -5.373 -31.969  0.00  0.00    +0.000 N 
ATOM      6  C   UNL     1     -44.334  -5.167 -31.531  0.00  0.00    +0.000 A 
ATOM      7  N   UNL     1     -44.924  -3.856 -31.490  0.00  0.00    +0.000 N 
ATOM      8  C   UNL     1     -46.294  -3.468 -31.366  0.00  0.00    +0.000 C 
ATOM      9  O   UNL     1     -46.586  -2.244 -31.363  0.00  0.00    +0.000 OA
ATOM     10  C   UNL     1     -47.386  -4.459 -31.241  0.00  0.00    +0.000 C 
ATOM     11  S   UNL     1     -47.088  -5.430 -29.755  0.00  0.00    +0.000 S 
ATOM     12  C   UNL     1     -44.012  -8.805 -31.591  0.00  0.00    +0.000 C 
ATOM     13  H   UNL     1     -44.285  -3.110 -31.559  0.00  0.00    +0.000 HD
ATOM     14  C   UNL     1     -42.110  -4.385 -32.378  0.00  0.00    +0.000 A 
ATOM     15  N   UNL     1     -40.972  -4.774 -33.016  0.00  0.00    +0.000 NA
ATOM     16  C   UNL     1     -40.041  -3.865 -33.409  0.00  0.00    +0.000 A 
ATOM     17  C   UNL     1     -40.243  -2.509 -33.159  0.00  0.00    +0.000 A 
ATOM     18  C   UNL     1     -41.412  -2.125 -32.505  0.00  0.00    +0.000 A 
ATOM     19  N   UNL     1     -42.318  -3.063 -32.128  0.00  0.00    +0.000 NA
ATOM     20  C   UNL     1     -41.666  -0.689 -32.219  0.00  0.00    +0.000 C 
ATOM     21  C   UNL     1     -38.807  -4.317 -34.102  0.00  0.00    +0.000 C 
ENDROOT
BRANCH   1  24
ATOM     22  C   UNL     1     -45.968  -9.282 -27.955  0.00  0.00    +0.000 A 
ATOM     23  C   UNL     1     -45.904  -8.097 -28.698  0.00  0.00    +0.000 A 
ATOM     24  C   UNL     1     -46.416  -8.030 -29.996  0.00  0.00    +0.000 A 
ATOM     25  C   UNL     1     -46.991  -9.169 -30.571  0.00  0.00    +0.000 A 
ATOM     26  C   UNL     1     -47.062 -10.357 -29.846  0.00  0.00    +0.000 A 
ATOM     27  C   UNL     1     -46.559 -10.432 -28.536  0.00  0.00    +0.000 A 
BRANCH  22  28
ATOM     28  O   UNL     1     -45.434  -9.250 -26.658  0.00  0.00    +0.000 OA
BRANCH  28  30
ATOM     29  C   UNL     1     -47.465  -8.850 -25.448  0.00  0.00    +0.000 C 
ATOM     30  C   UNL     1     -45.991  -8.527 -25.568  0.00  0.00    +0.000 C 
ENDBRANCH  28  30
ENDBRANCH  22  28
BRANCH  27  31
ATOM     31  O   UNL     1     -46.639 -11.633 -27.818  0.00  0.00    +0.000 OA
BRANCH  31  32
ATOM     32  C   UNL     1     -47.047 -12.870 -28.394  0.00  0.00    +0.000 C 
BRANCH  32  33
ATOM     33  C   UNL     1     -45.858 -13.721 -28.684  0.00  0.00    +0.000 C 
ATOM     34  O   UNL     1     -45.423 -14.512 -27.809  0.00  0.00    +0.000 OA
ATOM     35  N   UNL     1     -45.201 -13.620 -29.941  0.00  0.00    +0.000 N 
ATOM     36  H   UNL     1     -45.541 -13.001 -30.627  0.00  0.00    +0.000 HD
ATOM     37  H   UNL     1     -44.406 -14.170 -30.125  0.00  0.00    +0.000 HD
ENDBRANCH  32  33
ENDBRANCH  31  32
ENDBRANCH  27  31
ENDBRANCH   1  24
TORSDOF 6
ENDMDL
