MODEL 1
REMARK VINA RESULT:      -6.2      0.000      0.000
REMARK  Name = ZINC000018195878 ZINC18195878
REMARK  2 active torsions:
REMARK  status: ('A' for Active; 'I' for Inactive)
REMARK    1  A    between atoms: C_6  and  C_21
REMARK    2  A    between atoms: C_11  and  O_12
REMARK                            x       y       z     vdW  Elec       q    Type
REMARK                         _______ _______ _______ _____ _____    ______ ____
ROOT
ATOM      1  C   UNL     1     -44.007  -0.123 -32.183  0.00  0.00    +0.000 C 
ATOM      2  C   UNL     1     -44.228  -1.616 -32.288  0.00  0.00    +0.000 C 
ATOM      3  C   UNL     1     -45.250  -2.034 -31.228  0.00  0.00    +0.000 C 
ATOM      4  C   UNL     1     -45.368  -3.527 -31.056  0.00  0.00    +0.000 C 
ATOM      5  C   UNL     1     -44.341  -4.367 -31.382  0.00  0.00    +0.000 C 
ATOM      6  C   UNL     1     -44.467  -5.891 -31.264  0.00  0.00    +0.000 C 
ATOM      7  C   UNL     1     -45.695  -6.287 -30.503  0.00  0.00    +0.000 A 
ATOM      8  C   UNL     1     -46.678  -5.416 -30.178  0.00  0.00    +0.000 A 
ATOM      9  N   UNL     1     -47.697  -6.034 -29.556  0.00  0.00    +0.000 N 
ATOM     10  N   UNL     1     -47.381  -7.325 -29.483  0.00  0.00    +0.000 NA
ATOM     11  C   UNL     1     -46.171  -7.495 -30.058  0.00  0.00    +0.000 A 
ATOM     12  N   UNL     1     -46.579  -4.026 -30.459  0.00  0.00    +0.000 N 
ATOM     13  C   UNL     1     -43.070  -3.804 -31.898  0.00  0.00    +0.000 C 
ATOM     14  O   UNL     1     -42.101  -4.561 -32.167  0.00  0.00    +0.000 OA
ATOM     15  C   UNL     1     -42.895  -2.324 -32.056  0.00  0.00    +0.000 C 
ATOM     16  C   UNL     1     -44.757  -1.924 -33.681  0.00  0.00    +0.000 C 
ATOM     17  H   UNL     1     -48.521  -5.613 -29.219  0.00  0.00    +0.000 HD
ATOM     18  H   UNL     1     -47.323  -3.418 -30.249  0.00  0.00    +0.000 HD
ENDROOT
BRANCH   6  19
ATOM     19  C   UNL     1     -44.456  -6.546 -32.616  0.00  0.00    +0.000 A 
ATOM     20  C   UNL     1     -45.340  -6.096 -33.599  0.00  0.00    +0.000 A 
ATOM     21  C   UNL     1     -45.327  -6.697 -34.860  0.00  0.00    +0.000 A 
ATOM     22  N   UNL     1     -44.458  -7.710 -35.124  0.00  0.00    +0.000 NA
ATOM     23  C   UNL     1     -43.586  -8.163 -34.184  0.00  0.00    +0.000 A 
ATOM     24  C   UNL     1     -43.567  -7.588 -32.912  0.00  0.00    +0.000 A 
ENDBRANCH   6  19
BRANCH  11  25
ATOM     25  O   UNL     1     -45.529  -8.721 -30.176  0.00  0.00    +0.000 OA
ATOM     26  H   UNL     1     -45.095  -9.097 -29.435  0.00  0.00    +0.000 HD
ENDBRANCH  11  25
TORSDOF 2
ENDMDL
MODEL 2
REMARK VINA RESULT:      -6.2      2.297      3.763
REMARK  Name = ZINC000018195878 ZINC18195878
REMARK  2 active torsions:
REMARK  status: ('A' for Active; 'I' for Inactive)
REMARK    1  A    between atoms: C_6  and  C_21
REMARK    2  A    between atoms: C_11  and  O_12
REMARK                            x       y       z     vdW  Elec       q    Type
REMARK                         _______ _______ _______ _____ _____    ______ ____
ROOT
ATOM      1  C   UNL     1     -43.792  -0.580 -33.380  0.00  0.00    +0.000 C 
ATOM      2  C   UNL     1     -44.108  -1.860 -32.637  0.00  0.00    +0.000 C 
ATOM      3  C   UNL     1     -44.720  -2.858 -33.623  0.00  0.00    +0.000 C 
ATOM      4  C   UNL     1     -45.313  -4.075 -32.962  0.00  0.00    +0.000 C 
ATOM      5  C   UNL     1     -45.743  -4.047 -31.666  0.00  0.00    +0.000 C 
ATOM      6  C   UNL     1     -46.299  -5.292 -30.963  0.00  0.00    +0.000 C 
ATOM      7  C   UNL     1     -46.564  -6.402 -31.934  0.00  0.00    +0.000 A 
ATOM      8  C   UNL     1     -46.141  -6.379 -33.219  0.00  0.00    +0.000 A 
ATOM      9  N   UNL     1     -46.449  -7.520 -33.859  0.00  0.00    +0.000 N 
ATOM     10  N   UNL     1     -47.072  -8.301 -32.980  0.00  0.00    +0.000 NA
ATOM     11  C   UNL     1     -47.146  -7.638 -31.805  0.00  0.00    +0.000 A 
ATOM     12  N   UNL     1     -45.482  -5.250 -33.777  0.00  0.00    +0.000 N 
ATOM     13  C   UNL     1     -45.647  -2.786 -30.890  0.00  0.00    +0.000 C 
ATOM     14  O   UNL     1     -46.074  -2.732 -29.708  0.00  0.00    +0.000 OA
ATOM     15  C   UNL     1     -45.094  -1.542 -31.516  0.00  0.00    +0.000 C 
ATOM     16  C   UNL     1     -42.811  -2.412 -32.064  0.00  0.00    +0.000 C 
ATOM     17  H   UNL     1     -46.253  -7.738 -34.799  0.00  0.00    +0.000 HD
ATOM     18  H   UNL     1     -45.148  -5.271 -34.703  0.00  0.00    +0.000 HD
ENDROOT
BRANCH   6  19
ATOM     19  C   UNL     1     -45.377  -5.761 -29.874  0.00  0.00    +0.000 A 
ATOM     20  C   UNL     1     -44.018  -5.924 -30.153  0.00  0.00    +0.000 A 
ATOM     21  C   UNL     1     -43.157  -6.352 -29.140  0.00  0.00    +0.000 A 
ATOM     22  N   UNL     1     -43.640  -6.604 -27.894  0.00  0.00    +0.000 NA
ATOM     23  C   UNL     1     -44.959  -6.449 -27.597  0.00  0.00    +0.000 A 
ATOM     24  C   UNL     1     -45.852  -6.023 -28.582  0.00  0.00    +0.000 A 
ENDBRANCH   6  19
BRANCH  11  25
ATOM     25  O   UNL     1     -47.720  -8.156 -30.652  0.00  0.00    +0.000 OA
ATOM     26  H   UNL     1     -48.125  -9.001 -30.668  0.00  0.00    +0.000 HD
ENDBRANCH  11  25
TORSDOF 2
ENDMDL
MODEL 3
REMARK VINA RESULT:      -5.9     13.437     16.042
REMARK  Name = ZINC000018195878 ZINC18195878
REMARK  2 active torsions:
REMARK  status: ('A' for Active; 'I' for Inactive)
REMARK    1  A    between atoms: C_6  and  C_21
REMARK    2  A    between atoms: C_11  and  O_12
REMARK                            x       y       z     vdW  Elec       q    Type
REMARK                         _______ _______ _______ _____ _____    ______ ____
ROOT
ATOM      1  C   UNL     1     -46.183 -15.475 -18.215  0.00  0.00    +0.000 C 
ATOM      2  C   UNL     1     -45.564 -16.163 -19.413  0.00  0.00    +0.000 C 
ATOM      3  C   UNL     1     -45.917 -15.365 -20.670  0.00  0.00    +0.000 C 
ATOM      4  C   UNL     1     -45.581 -16.078 -21.954  0.00  0.00    +0.000 C 
ATOM      5  C   UNL     1     -45.493 -17.440 -22.014  0.00  0.00    +0.000 C 
ATOM      6  C   UNL     1     -45.098 -18.177 -23.300  0.00  0.00    +0.000 C 
ATOM      7  C   UNL     1     -45.113 -17.262 -24.487  0.00  0.00    +0.000 A 
ATOM      8  C   UNL     1     -45.227 -15.918 -24.385  0.00  0.00    +0.000 A 
ATOM      9  N   UNL     1     -45.147 -15.325 -25.589  0.00  0.00    +0.000 N 
ATOM     10  N   UNL     1     -44.969 -16.291 -26.486  0.00  0.00    +0.000 NA
ATOM     11  C   UNL     1     -44.942 -17.473 -25.832  0.00  0.00    +0.000 A 
ATOM     12  N   UNL     1     -45.433 -15.270 -23.136  0.00  0.00    +0.000 N 
ATOM     13  C   UNL     1     -45.755 -18.245 -20.795  0.00  0.00    +0.000 C 
ATOM     14  O   UNL     1     -45.716 -19.501 -20.841  0.00  0.00    +0.000 OA
ATOM     15  C   UNL     1     -46.124 -17.580 -19.503  0.00  0.00    +0.000 C 
ATOM     16  C   UNL     1     -44.056 -16.199 -19.217  0.00  0.00    +0.000 C 
ATOM     17  H   UNL     1     -45.209 -14.360 -25.773  0.00  0.00    +0.000 HD
ATOM     18  H   UNL     1     -45.474 -14.289 -23.082  0.00  0.00    +0.000 HD
ENDROOT
BRANCH   6  19
ATOM     19  C   UNL     1     -43.753 -18.832 -23.163  0.00  0.00    +0.000 A 
ATOM     20  C   UNL     1     -43.612 -20.178 -23.509  0.00  0.00    +0.000 A 
ATOM     21  C   UNL     1     -42.361 -20.788 -23.391  0.00  0.00    +0.000 A 
ATOM     22  N   UNL     1     -41.293 -20.074 -22.944  0.00  0.00    +0.000 NA
ATOM     23  C   UNL     1     -41.405 -18.761 -22.605  0.00  0.00    +0.000 A 
ATOM     24  C   UNL     1     -42.638 -18.115 -22.710  0.00  0.00    +0.000 A 
ENDBRANCH   6  19
BRANCH  11  25
ATOM     25  O   UNL     1     -44.757 -18.703 -26.450  0.00  0.00    +0.000 OA
ATOM     26  H   UNL     1     -43.933 -19.144 -26.381  0.00  0.00    +0.000 HD
ENDBRANCH  11  25
TORSDOF 2
ENDMDL
