MODEL 1
REMARK VINA RESULT:      -6.3      0.000      0.000
REMARK  Name = ZINC000012801021 ZINC12801021 MolPort-005-751-258 PubChem-25522332
REMARK  5 active torsions:
REMARK  status: ('A' for Active; 'I' for Inactive)
REMARK    1  A    between atoms: N_1  and  C_9
REMARK    2  A    between atoms: C_2  and  C_16
REMARK    3  A    between atoms: C_5  and  O_13
REMARK    4  A    between atoms: C_11  and  O_14
REMARK    5  A    between atoms: C_17  and  C_18
REMARK                            x       y       z     vdW  Elec       q    Type
REMARK                         _______ _______ _______ _____ _____    ______ ____
ROOT
ATOM      1  N   UNL     1     -43.930 -17.331 -26.833  0.00  0.00    +0.000 N 
ATOM      2  C   UNL     1     -44.460 -18.332 -25.951  0.00  0.00    +0.000 C 
ATOM      3  O   UNL     1     -44.939 -19.385 -26.446  0.00  0.00    +0.000 OA
ATOM      4  H   UNL     1     -43.450 -17.650 -27.631  0.00  0.00    +0.000 HD
ENDROOT
BRANCH   1   9
ATOM      5  C   UNL     1     -44.216 -13.111 -26.396  0.00  0.00    +0.000 A 
ATOM      6  C   UNL     1     -42.973 -13.756 -26.308  0.00  0.00    +0.000 A 
ATOM      7  C   UNL     1     -42.877 -15.144 -26.444  0.00  0.00    +0.000 A 
ATOM      8  C   UNL     1     -41.535 -15.784 -26.346  0.00  0.00    +0.000 C 
ATOM      9  C   UNL     1     -44.033 -15.909 -26.661  0.00  0.00    +0.000 A 
ATOM     10  C   UNL     1     -45.272 -15.261 -26.769  0.00  0.00    +0.000 A 
ATOM     11  C   UNL     1     -45.373 -13.869 -26.629  0.00  0.00    +0.000 A 
BRANCH   5  13
ATOM     12  C   UNL     1     -43.898 -10.814 -27.262  0.00  0.00    +0.000 C 
ATOM     13  O   UNL     1     -44.324 -11.724 -26.256  0.00  0.00    +0.000 OA
ENDBRANCH   5  13
BRANCH  11  14
ATOM     14  O   UNL     1     -46.610 -13.221 -26.716  0.00  0.00    +0.000 OA
ATOM     15  C   UNL     1     -47.151 -12.761 -27.948  0.00  0.00    +0.000 C 
ENDBRANCH  11  14
ENDBRANCH   1   9
BRANCH   2  16
ATOM     16  C   UNL     1     -44.414 -18.206 -24.485  0.00  0.00    +0.000 C 
ATOM     17  C   UNL     1     -45.379 -17.621 -23.782  0.00  0.00    +0.000 C 
BRANCH  17  18
ATOM     18  C   UNL     1     -45.352 -17.504 -22.317  0.00  0.00    +0.000 A 
ATOM     19  C   UNL     1     -45.667 -16.409 -21.523  0.00  0.00    +0.000 A 
ATOM     20  C   UNL     1     -46.120 -15.076 -22.026  0.00  0.00    +0.000 C 
ATOM     21  N   UNL     1     -45.494 -16.726 -20.218  0.00  0.00    +0.000 N 
ATOM     22  C   UNL     1     -45.073 -18.014 -20.203  0.00  0.00    +0.000 A 
ATOM     23  C   UNL     1     -44.754 -18.802 -18.977  0.00  0.00    +0.000 C 
ATOM     24  C   UNL     1     -44.972 -18.534 -21.481  0.00  0.00    +0.000 A 
ATOM     25  C   UNL     1     -45.710 -15.876 -19.070  0.00  0.00    +0.000 A 
ATOM     26  N   UNL     1     -46.921 -15.648 -18.527  0.00  0.00    +0.000 NA
ATOM     27  O   UNL     1     -46.732 -14.843 -17.525  0.00  0.00    +0.000 OA
ATOM     28  C   UNL     1     -45.463 -14.547 -17.402  0.00  0.00    +0.000 A 
ATOM     29  C   UNL     1     -44.912 -13.649 -16.354  0.00  0.00    +0.000 C 
ATOM     30  C   UNL     1     -44.726 -15.185 -18.379  0.00  0.00    +0.000 A 
ENDBRANCH  17  18
ENDBRANCH   2  16
TORSDOF 5
ENDMDL
MODEL 2
REMARK VINA RESULT:      -6.2      3.301      8.030
REMARK  Name = ZINC000012801021 ZINC12801021 MolPort-005-751-258 PubChem-25522332
REMARK  5 active torsions:
REMARK  status: ('A' for Active; 'I' for Inactive)
REMARK    1  A    between atoms: N_1  and  C_9
REMARK    2  A    between atoms: C_2  and  C_16
REMARK    3  A    between atoms: C_5  and  O_13
REMARK    4  A    between atoms: C_11  and  O_14
REMARK    5  A    between atoms: C_17  and  C_18
REMARK                            x       y       z     vdW  Elec       q    Type
REMARK                         _______ _______ _______ _____ _____    ______ ____
ROOT
ATOM      1  N   UNL     1     -44.862 -18.882 -20.899  0.00  0.00    +0.000 N 
ATOM      2  C   UNL     1     -43.580 -19.495 -21.102  0.00  0.00    +0.000 C 
ATOM      3  O   UNL     1     -43.068 -20.155 -20.161  0.00  0.00    +0.000 OA
ATOM      4  H   UNL     1     -45.517 -19.386 -20.364  0.00  0.00    +0.000 HD
ENDROOT
BRANCH   1   9
ATOM      5  C   UNL     1     -46.032 -15.075 -22.387  0.00  0.00    +0.000 A 
ATOM      6  C   UNL     1     -45.937 -15.304 -21.006  0.00  0.00    +0.000 A 
ATOM      7  C   UNL     1     -45.560 -16.556 -20.514  0.00  0.00    +0.000 A 
ATOM      8  C   UNL     1     -45.471 -16.751 -19.040  0.00  0.00    +0.000 C 
ATOM      9  C   UNL     1     -45.281 -17.605 -21.404  0.00  0.00    +0.000 A 
ATOM     10  C   UNL     1     -45.357 -17.368 -22.784  0.00  0.00    +0.000 A 
ATOM     11  C   UNL     1     -45.739 -16.114 -23.283  0.00  0.00    +0.000 A 
BRANCH   5  13
ATOM     12  C   UNL     1     -45.514 -12.731 -22.992  0.00  0.00    +0.000 C 
ATOM     13  O   UNL     1     -46.413 -13.827 -22.891  0.00  0.00    +0.000 OA
ENDBRANCH   5  13
BRANCH  11  14
ATOM     14  O   UNL     1     -45.834 -15.880 -24.659  0.00  0.00    +0.000 OA
ATOM     15  C   UNL     1     -44.715 -15.513 -25.455  0.00  0.00    +0.000 C 
ENDBRANCH  11  14
ENDBRANCH   1   9
BRANCH   2  16
ATOM     16  C   UNL     1     -42.862 -19.434 -22.385  0.00  0.00    +0.000 C 
ATOM     17  C   UNL     1     -43.240 -20.127 -23.454  0.00  0.00    +0.000 C 
BRANCH  17  18
ATOM     18  C   UNL     1     -42.541 -20.062 -24.747  0.00  0.00    +0.000 A 
ATOM     19  C   UNL     1     -43.023 -19.645 -25.980  0.00  0.00    +0.000 A 
ATOM     20  C   UNL     1     -44.410 -19.152 -26.246  0.00  0.00    +0.000 C 
ATOM     21  N   UNL     1     -42.050 -19.759 -26.914  0.00  0.00    +0.000 N 
ATOM     22  C   UNL     1     -40.967 -20.245 -26.261  0.00  0.00    +0.000 A 
ATOM     23  C   UNL     1     -39.642 -20.533 -26.885  0.00  0.00    +0.000 C 
ATOM     24  C   UNL     1     -41.226 -20.447 -24.918  0.00  0.00    +0.000 A 
ATOM     25  C   UNL     1     -42.135 -19.433 -28.319  0.00  0.00    +0.000 A 
ATOM     26  N   UNL     1     -42.017 -18.181 -28.803  0.00  0.00    +0.000 NA
ATOM     27  O   UNL     1     -42.149 -18.269 -30.092  0.00  0.00    +0.000 OA
ATOM     28  C   UNL     1     -42.346 -19.512 -30.454  0.00  0.00    +0.000 A 
ATOM     29  C   UNL     1     -42.537 -19.954 -31.860  0.00  0.00    +0.000 C 
ATOM     30  C   UNL     1     -42.352 -20.337 -29.347  0.00  0.00    +0.000 A 
ENDBRANCH  17  18
ENDBRANCH   2  16
TORSDOF 5
ENDMDL
MODEL 3
REMARK VINA RESULT:      -6.0      3.007      7.489
REMARK  Name = ZINC000012801021 ZINC12801021 MolPort-005-751-258 PubChem-25522332
REMARK  5 active torsions:
REMARK  status: ('A' for Active; 'I' for Inactive)
REMARK    1  A    between atoms: N_1  and  C_9
REMARK    2  A    between atoms: C_2  and  C_16
REMARK    3  A    between atoms: C_5  and  O_13
REMARK    4  A    between atoms: C_11  and  O_14
REMARK    5  A    between atoms: C_17  and  C_18
REMARK                            x       y       z     vdW  Elec       q    Type
REMARK                         _______ _______ _______ _____ _____    ______ ____
ROOT
ATOM      1  N   UNL     1     -45.119 -19.275 -24.349  0.00  0.00    +0.000 N 
ATOM      2  C   UNL     1     -44.893 -18.330 -25.405  0.00  0.00    +0.000 C 
ATOM      3  O   UNL     1     -44.783 -18.753 -26.584  0.00  0.00    +0.000 OA
ATOM      4  H   UNL     1     -45.705 -20.040 -24.553  0.00  0.00    +0.000 HD
ENDROOT
BRANCH   1   9
ATOM      5  C   UNL     1     -43.457 -19.032 -20.443  0.00  0.00    +0.000 A 
ATOM      6  C   UNL     1     -42.841 -19.810 -21.434  0.00  0.00    +0.000 A 
ATOM      7  C   UNL     1     -43.388 -19.898 -22.717  0.00  0.00    +0.000 A 
ATOM      8  C   UNL     1     -42.698 -20.735 -23.737  0.00  0.00    +0.000 C 
ATOM      9  C   UNL     1     -44.574 -19.211 -23.022  0.00  0.00    +0.000 A 
ATOM     10  C   UNL     1     -45.177 -18.417 -22.035  0.00  0.00    +0.000 A 
ATOM     11  C   UNL     1     -44.633 -18.330 -20.745  0.00  0.00    +0.000 A 
BRANCH   5  13
ATOM     12  C   UNL     1     -42.923 -20.030 -18.241  0.00  0.00    +0.000 C 
ATOM     13  O   UNL     1     -42.920 -18.941 -19.154  0.00  0.00    +0.000 OA
ENDBRANCH   5  13
BRANCH  11  14
ATOM     14  O   UNL     1     -45.242 -17.555 -19.754  0.00  0.00    +0.000 OA
ATOM     15  C   UNL     1     -46.570 -17.789 -19.302  0.00  0.00    +0.000 C 
ENDBRANCH  11  14
ENDBRANCH   1   9
BRANCH   2  16
ATOM     16  C   UNL     1     -44.842 -16.877 -25.175  0.00  0.00    +0.000 C 
ATOM     17  C   UNL     1     -45.927 -16.110 -25.171  0.00  0.00    +0.000 C 
BRANCH  17  18
ATOM     18  C   UNL     1     -45.891 -14.660 -24.927  0.00  0.00    +0.000 A 
ATOM     19  C   UNL     1     -46.056 -13.619 -25.830  0.00  0.00    +0.000 A 
ATOM     20  C   UNL     1     -46.321 -13.775 -27.294  0.00  0.00    +0.000 C 
ATOM     21  N   UNL     1     -45.934 -12.434 -25.188  0.00  0.00    +0.000 N 
ATOM     22  C   UNL     1     -45.694 -12.740 -23.890  0.00  0.00    +0.000 A 
ATOM     23  C   UNL     1     -45.491 -11.748 -22.794  0.00  0.00    +0.000 C 
ATOM     24  C   UNL     1     -45.659 -14.107 -23.684  0.00  0.00    +0.000 A 
ATOM     25  C   UNL     1     -46.036 -11.109 -25.757  0.00  0.00    +0.000 A 
ATOM     26  N   UNL     1     -47.208 -10.493 -26.008  0.00  0.00    +0.000 NA
ATOM     27  O   UNL     1     -46.915  -9.334 -26.514  0.00  0.00    +0.000 OA
ATOM     28  C   UNL     1     -45.617  -9.179 -26.599  0.00  0.00    +0.000 A 
ATOM     29  C   UNL     1     -44.953  -7.964 -27.137  0.00  0.00    +0.000 C 
ATOM     30  C   UNL     1     -44.970 -10.302 -26.124  0.00  0.00    +0.000 A 
ENDBRANCH  17  18
ENDBRANCH   2  16
TORSDOF 5
ENDMDL
