MODEL 1
REMARK VINA RESULT:      -7.1      0.000      0.000
REMARK  Name = ZINC000019138008
REMARK  5 active torsions:
REMARK  status: ('A' for Active; 'I' for Inactive)
REMARK    1  A    between atoms: C_1  and  C_23
REMARK    2  A    between atoms: C_2  and  O_3
REMARK    3  A    between atoms: C_7  and  C_9
REMARK    4  A    between atoms: C_12  and  C_15
REMARK    5  A    between atoms: C_23  and  C_29
REMARK                            x       y       z     vdW  Elec       q    Type
REMARK                         _______ _______ _______ _____ _____    ______ ____
ROOT
ATOM      1  C   UNL     1     -45.503 -17.109 -25.127  0.00  0.00    +0.000 C 
ATOM      2  C   UNL     1     -44.852 -16.963 -26.280  0.00  0.00    +0.000 C 
ATOM      3  C   UNL     1     -44.881 -15.574 -26.658  0.00  0.00    +0.000 C 
ATOM      4  O   UNL     1     -44.377 -15.090 -27.705  0.00  0.00    +0.000 OA
ATOM      5  N   UNL     1     -45.581 -14.825 -25.678  0.00  0.00    +0.000 N 
ATOM      6  C   UNL     1     -46.000 -15.762 -24.632  0.00  0.00    +0.000 C 
ATOM      7  C   UNL     1     -45.972 -13.449 -25.779  0.00  0.00    +0.000 A 
ATOM      8  N   UNL     1     -46.804 -12.975 -26.727  0.00  0.00    +0.000 NA
ATOM      9  N   UNL     1     -47.022 -11.664 -26.622  0.00  0.00    +0.000 NA
ATOM     10  C   UNL     1     -46.370 -11.071 -25.593  0.00  0.00    +0.000 A 
ATOM     11  S   UNL     1     -45.466 -12.220 -24.752  0.00  0.00    +0.000 S 
ENDROOT
BRANCH   6  12
ATOM     12  C   UNL     1     -45.371 -15.403 -23.314  0.00  0.00    +0.000 A 
ATOM     13  C   UNL     1     -46.195 -15.098 -22.227  0.00  0.00    +0.000 A 
ATOM     14  C   UNL     1     -45.635 -14.766 -20.991  0.00  0.00    +0.000 A 
ATOM     15  C   UNL     1     -44.241 -14.735 -20.833  0.00  0.00    +0.000 A 
ATOM     16  C   UNL     1     -43.416 -15.040 -21.921  0.00  0.00    +0.000 A 
ATOM     17  C   UNL     1     -43.977 -15.372 -23.157  0.00  0.00    +0.000 A 
BRANCH  15  18
ATOM     18  C   UNL     1     -43.614 -14.384 -19.520  0.00  0.00    +0.000 C 
ATOM     19  C   UNL     1     -43.712 -15.539 -18.542  0.00  0.00    +0.000 C 
ATOM     20  C   UNL     1     -44.250 -13.140 -18.926  0.00  0.00    +0.000 C 
ENDBRANCH  15  18
ENDBRANCH   6  12
BRANCH   2  21
ATOM     21  O   UNL     1     -44.257 -17.984 -27.012  0.00  0.00    +0.000 OA
ATOM     22  H   UNL     1     -44.738 -18.417 -27.689  0.00  0.00    +0.000 HD
ENDBRANCH   2  21
BRANCH   1  23
ATOM     23  C   UNL     1     -45.684 -18.400 -24.418  0.00  0.00    +0.000 C 
ATOM     24  O   UNL     1     -46.330 -19.323 -24.983  0.00  0.00    +0.000 OA
BRANCH  23  29
ATOM     25  C   UNL     1     -43.513 -19.298 -19.144  0.00  0.00    +0.000 C 
ATOM     26  C   UNL     1     -44.067 -19.069 -20.502  0.00  0.00    +0.000 A 
ATOM     27  C   UNL     1     -43.241 -19.184 -21.623  0.00  0.00    +0.000 A 
ATOM     28  C   UNL     1     -43.764 -18.969 -22.901  0.00  0.00    +0.000 A 
ATOM     29  C   UNL     1     -45.118 -18.645 -23.072  0.00  0.00    +0.000 A 
ATOM     30  C   UNL     1     -45.936 -18.518 -21.939  0.00  0.00    +0.000 A 
ATOM     31  C   UNL     1     -45.414 -18.732 -20.660  0.00  0.00    +0.000 A 
ENDBRANCH  23  29
ENDBRANCH   1  23
TORSDOF 5
ENDMDL
MODEL 2
REMARK VINA RESULT:      -6.5     10.279     15.328
REMARK  Name = ZINC000019138008
REMARK  5 active torsions:
REMARK  status: ('A' for Active; 'I' for Inactive)
REMARK    1  A    between atoms: C_1  and  C_23
REMARK    2  A    between atoms: C_2  and  O_3
REMARK    3  A    between atoms: C_7  and  C_9
REMARK    4  A    between atoms: C_12  and  C_15
REMARK    5  A    between atoms: C_23  and  C_29
REMARK                            x       y       z     vdW  Elec       q    Type
REMARK                         _______ _______ _______ _____ _____    ______ ____
ROOT
ATOM      1  C   UNL     1     -46.246  -4.565 -32.088  0.00  0.00    +0.000 C 
ATOM      2  C   UNL     1     -46.997  -4.593 -30.989  0.00  0.00    +0.000 C 
ATOM      3  C   UNL     1     -46.912  -5.905 -30.401  0.00  0.00    +0.000 C 
ATOM      4  O   UNL     1     -47.516  -6.283 -29.363  0.00  0.00    +0.000 OA
ATOM      5  N   UNL     1     -46.053  -6.724 -31.178  0.00  0.00    +0.000 N 
ATOM      6  C   UNL     1     -45.561  -5.906 -32.290  0.00  0.00    +0.000 C 
ATOM      7  C   UNL     1     -45.853  -8.135 -31.020  0.00  0.00    +0.000 A 
ATOM      8  N   UNL     1     -46.833  -9.051 -31.150  0.00  0.00    +0.000 NA
ATOM      9  N   UNL     1     -46.409 -10.300 -30.958  0.00  0.00    +0.000 NA
ATOM     10  C   UNL     1     -45.089 -10.403 -30.672  0.00  0.00    +0.000 A 
ATOM     11  S   UNL     1     -44.387  -8.869 -30.651  0.00  0.00    +0.000 S 
ENDROOT
BRANCH   6  12
ATOM     12  C   UNL     1     -44.066  -5.767 -32.225  0.00  0.00    +0.000 A 
ATOM     13  C   UNL     1     -43.295  -6.180 -33.316  0.00  0.00    +0.000 A 
ATOM     14  C   UNL     1     -41.904  -6.057 -33.282  0.00  0.00    +0.000 A 
ATOM     15  C   UNL     1     -41.271  -5.518 -32.151  0.00  0.00    +0.000 A 
ATOM     16  C   UNL     1     -42.041  -5.104 -31.059  0.00  0.00    +0.000 A 
ATOM     17  C   UNL     1     -43.433  -5.228 -31.094  0.00  0.00    +0.000 A 
BRANCH  15  18
ATOM     18  C   UNL     1     -39.782  -5.373 -32.088  0.00  0.00    +0.000 C 
ATOM     19  C   UNL     1     -39.319  -4.155 -32.865  0.00  0.00    +0.000 C 
ATOM     20  C   UNL     1     -39.089  -6.619 -32.608  0.00  0.00    +0.000 C 
ENDBRANCH  15  18
ENDBRANCH   6  12
BRANCH   2  21
ATOM     21  O   UNL     1     -47.756  -3.539 -30.495  0.00  0.00    +0.000 OA
ATOM     22  H   UNL     1     -48.077  -3.563 -29.615  0.00  0.00    +0.000 HD
ENDBRANCH   2  21
BRANCH   1  23
ATOM     23  C   UNL     1     -46.079  -3.380 -32.965  0.00  0.00    +0.000 C 
ATOM     24  O   UNL     1     -47.006  -3.073 -33.763  0.00  0.00    +0.000 OA
BRANCH  23  29
ATOM     25  C   UNL     1     -41.297  -0.147 -32.818  0.00  0.00    +0.000 C 
ATOM     26  C   UNL     1     -42.529  -0.975 -32.853  0.00  0.00    +0.000 A 
ATOM     27  C   UNL     1     -43.579  -0.704 -31.972  0.00  0.00    +0.000 A 
ATOM     28  C   UNL     1     -44.739  -1.484 -32.006  0.00  0.00    +0.000 A 
ATOM     29  C   UNL     1     -44.864  -2.536 -32.926  0.00  0.00    +0.000 A 
ATOM     30  C   UNL     1     -43.798  -2.808 -33.797  0.00  0.00    +0.000 A 
ATOM     31  C   UNL     1     -42.637  -2.029 -33.764  0.00  0.00    +0.000 A 
ENDBRANCH  23  29
ENDBRANCH   1  23
TORSDOF 5
ENDMDL
MODEL 3
REMARK VINA RESULT:      -6.5      3.573      5.847
REMARK  Name = ZINC000019138008
REMARK  5 active torsions:
REMARK  status: ('A' for Active; 'I' for Inactive)
REMARK    1  A    between atoms: C_1  and  C_23
REMARK    2  A    between atoms: C_2  and  O_3
REMARK    3  A    between atoms: C_7  and  C_9
REMARK    4  A    between atoms: C_12  and  C_15
REMARK    5  A    between atoms: C_23  and  C_29
REMARK                            x       y       z     vdW  Elec       q    Type
REMARK                         _______ _______ _______ _____ _____    ______ ____
ROOT
ATOM      1  C   UNL     1     -45.016 -18.049 -20.555  0.00  0.00    +0.000 C 
ATOM      2  C   UNL     1     -46.127 -18.248 -19.848  0.00  0.00    +0.000 C 
ATOM      3  C   UNL     1     -46.582 -16.984 -19.330  0.00  0.00    +0.000 C 
ATOM      4  O   UNL     1     -47.595 -16.813 -18.601  0.00  0.00    +0.000 OA
ATOM      5  N   UNL     1     -45.707 -15.951 -19.752  0.00  0.00    +0.000 N 
ATOM      6  C   UNL     1     -44.668 -16.571 -20.578  0.00  0.00    +0.000 C 
ATOM      7  C   UNL     1     -45.723 -14.589 -19.303  0.00  0.00    +0.000 A 
ATOM      8  N   UNL     1     -45.530 -14.220 -18.022  0.00  0.00    +0.000 NA
ATOM      9  N   UNL     1     -45.588 -12.900 -17.844  0.00  0.00    +0.000 NA
ATOM     10  C   UNL     1     -45.829 -12.195 -18.975  0.00  0.00    +0.000 A 
ATOM     11  S   UNL     1     -45.980 -13.249 -20.283  0.00  0.00    +0.000 S 
ENDROOT
BRANCH   6  12
ATOM     12  C   UNL     1     -44.707 -16.025 -21.979  0.00  0.00    +0.000 A 
ATOM     13  C   UNL     1     -43.516 -15.609 -22.581  0.00  0.00    +0.000 A 
ATOM     14  C   UNL     1     -43.525 -15.104 -23.884  0.00  0.00    +0.000 A 
ATOM     15  C   UNL     1     -44.731 -15.009 -24.595  0.00  0.00    +0.000 A 
ATOM     16  C   UNL     1     -45.923 -15.425 -23.992  0.00  0.00    +0.000 A 
ATOM     17  C   UNL     1     -45.913 -15.931 -22.690  0.00  0.00    +0.000 A 
BRANCH  15  18
ATOM     18  C   UNL     1     -44.770 -14.472 -25.992  0.00  0.00    +0.000 C 
ATOM     19  C   UNL     1     -46.066 -13.730 -26.255  0.00  0.00    +0.000 C 
ATOM     20  C   UNL     1     -44.588 -15.584 -27.009  0.00  0.00    +0.000 C 
ENDBRANCH  15  18
ENDBRANCH   6  12
BRANCH   2  21
ATOM     21  O   UNL     1     -46.740 -19.476 -19.625  0.00  0.00    +0.000 OA
ATOM     22  H   UNL     1     -47.012 -19.714 -18.761  0.00  0.00    +0.000 HD
ENDBRANCH   2  21
BRANCH   1  23
ATOM     23  C   UNL     1     -44.254 -19.117 -21.248  0.00  0.00    +0.000 C 
ATOM     24  O   UNL     1     -43.680 -20.004 -20.559  0.00  0.00    +0.000 OA
BRANCH  23  29
ATOM     25  C   UNL     1     -43.819 -19.332 -27.001  0.00  0.00    +0.000 C 
ATOM     26  C   UNL     1     -43.935 -19.278 -25.522  0.00  0.00    +0.000 A 
ATOM     27  C   UNL     1     -45.196 -19.256 -24.921  0.00  0.00    +0.000 A 
ATOM     28  C   UNL     1     -45.305 -19.206 -23.528  0.00  0.00    +0.000 A 
ATOM     29  C   UNL     1     -44.156 -19.185 -22.723  0.00  0.00    +0.000 A 
ATOM     30  C   UNL     1     -42.895 -19.192 -23.337  0.00  0.00    +0.000 A 
ATOM     31  C   UNL     1     -42.784 -19.242 -24.730  0.00  0.00    +0.000 A 
ENDBRANCH  23  29
ENDBRANCH   1  23
TORSDOF 5
ENDMDL
