MODEL 1
REMARK VINA RESULT:      -7.1      0.000      0.000
REMARK  Name = ZINC000100627416
REMARK  4 active torsions:
REMARK  status: ('A' for Active; 'I' for Inactive)
REMARK    1  A    between atoms: C_12  and  C_19
REMARK    2  A    between atoms: N_15  and  C_28
REMARK    3  A    between atoms: N_21  and  C_23
REMARK    4  A    between atoms: C_28  and  C_29
REMARK                            x       y       z     vdW  Elec       q    Type
REMARK                         _______ _______ _______ _____ _____    ______ ____
ROOT
ATOM      1  C   UNL     1     -46.858  -5.965 -21.868  0.00  0.00    +0.000 C 
ATOM      2  C   UNL     1     -47.074  -4.634 -22.505  0.00  0.00    +0.000 A 
ATOM      3  C   UNL     1     -47.297  -3.523 -21.694  0.00  0.00    +0.000 A 
ATOM      4  C   UNL     1     -47.499  -2.271 -22.268  0.00  0.00    +0.000 A 
ATOM      5  C   UNL     1     -47.476  -2.146 -23.657  0.00  0.00    +0.000 A 
ATOM      6  N   UNL     1     -47.258  -3.231 -24.458  0.00  0.00    +0.000 N 
ATOM      7  C   UNL     1     -47.058  -4.475 -23.901  0.00  0.00    +0.000 A 
ATOM      8  N   UNL     1     -46.839  -5.552 -24.701  0.00  0.00    +0.000 NA
ATOM      9  C   UNL     1     -46.806  -5.445 -26.056  0.00  0.00    +0.000 A 
ATOM     10  C   UNL     1     -47.017  -4.189 -26.645  0.00  0.00    +0.000 A 
ATOM     11  C   UNL     1     -47.003  -4.079 -28.032  0.00  0.00    +0.000 A 
ATOM     12  C   UNL     1     -46.792  -5.198 -28.841  0.00  0.00    +0.000 A 
ATOM     13  C   UNL     1     -46.590  -6.453 -28.212  0.00  0.00    +0.000 A 
ATOM     14  N   UNL     1     -46.439  -7.522 -28.930  0.00  0.00    +0.000 NA
ATOM     15  N   UNL     1     -46.577  -6.546 -26.840  0.00  0.00    +0.000 N 
ATOM     16  C   UNL     1     -47.242  -3.079 -25.819  0.00  0.00    +0.000 A 
ATOM     17  O   UNL     1     -47.430  -1.940 -26.338  0.00  0.00    +0.000 OA
ATOM     18  H   UNL     1     -46.448  -7.460 -29.912  0.00  0.00    +0.000 HD
ENDROOT
BRANCH  12  19
ATOM     19  C   UNL     1     -46.795  -5.003 -30.314  0.00  0.00    +0.000 C 
ATOM     20  O   UNL     1     -47.550  -5.715 -31.034  0.00  0.00    +0.000 OA
ATOM     21  N   UNL     1     -45.969  -4.010 -30.933  0.00  0.00    +0.000 N 
ATOM     22  H   UNL     1     -45.408  -3.441 -30.358  0.00  0.00    +0.000 HD
BRANCH  21  23
ATOM     23  C   UNL     1     -45.923  -3.807 -32.374  0.00  0.00    +0.000 C 
ATOM     24  C   UNL     1     -44.732  -4.542 -32.970  0.00  0.00    +0.000 C 
ATOM     25  C   UNL     1     -43.801  -3.485 -33.527  0.00  0.00    +0.000 C 
ATOM     26  C   UNL     1     -44.662  -2.264 -33.744  0.00  0.00    +0.000 C 
ATOM     27  C   UNL     1     -45.721  -2.334 -32.667  0.00  0.00    +0.000 C 
ENDBRANCH  21  23
ENDBRANCH  12  19
BRANCH  15  28
ATOM     28  C   UNL     1     -46.335  -7.847 -26.197  0.00  0.00    +0.000 C 
BRANCH  28  29
ATOM     29  C   UNL     1     -44.841  -8.133 -26.004  0.00  0.00    +0.000 C 
ATOM     30  C   UNL     1     -44.430  -8.045 -24.550  0.00  0.00    +0.000 C 
ATOM     31  C   UNL     1     -43.185  -7.215 -24.572  0.00  0.00    +0.000 C 
ATOM     32  C   UNL     1     -42.863  -7.097 -26.041  0.00  0.00    +0.000 C 
ATOM     33  O   UNL     1     -44.053  -7.254 -26.765  0.00  0.00    +0.000 OA
ENDBRANCH  28  29
ENDBRANCH  15  28
TORSDOF 4
ENDMDL
MODEL 2
REMARK VINA RESULT:      -7.0      4.768      6.703
REMARK  Name = ZINC000100627416
REMARK  4 active torsions:
REMARK  status: ('A' for Active; 'I' for Inactive)
REMARK    1  A    between atoms: C_12  and  C_19
REMARK    2  A    between atoms: N_15  and  C_28
REMARK    3  A    between atoms: N_21  and  C_23
REMARK    4  A    between atoms: C_28  and  C_29
REMARK                            x       y       z     vdW  Elec       q    Type
REMARK                         _______ _______ _______ _____ _____    ______ ____
ROOT
ATOM      1  C   UNL     1     -46.440 -12.788 -30.392  0.00  0.00    +0.000 C 
ATOM      2  C   UNL     1     -46.594 -11.694 -29.391  0.00  0.00    +0.000 A 
ATOM      3  C   UNL     1     -46.710 -12.021 -28.042  0.00  0.00    +0.000 A 
ATOM      4  C   UNL     1     -46.852 -11.015 -27.091  0.00  0.00    +0.000 A 
ATOM      5  C   UNL     1     -46.877  -9.683 -27.505  0.00  0.00    +0.000 A 
ATOM      6  N   UNL     1     -46.763  -9.355 -28.826  0.00  0.00    +0.000 N 
ATOM      7  C   UNL     1     -46.623 -10.342 -29.776  0.00  0.00    +0.000 A 
ATOM      8  N   UNL     1     -46.507 -10.012 -31.090  0.00  0.00    +0.000 NA
ATOM      9  C   UNL     1     -46.522  -8.719 -31.509  0.00  0.00    +0.000 A 
ATOM     10  C   UNL     1     -46.673  -7.697 -30.558  0.00  0.00    +0.000 A 
ATOM     11  C   UNL     1     -46.707  -6.373 -30.986  0.00  0.00    +0.000 A 
ATOM     12  C   UNL     1     -46.603  -6.051 -32.341  0.00  0.00    +0.000 A 
ATOM     13  C   UNL     1     -46.459  -7.109 -33.274  0.00  0.00    +0.000 A 
ATOM     14  N   UNL     1     -46.407  -6.852 -34.543  0.00  0.00    +0.000 NA
ATOM     15  N   UNL     1     -46.397  -8.412 -32.839  0.00  0.00    +0.000 N 
ATOM     16  C   UNL     1     -46.791  -8.039 -29.204  0.00  0.00    +0.000 A 
ATOM     17  O   UNL     1     -46.924  -7.127 -28.337  0.00  0.00    +0.000 OA
ATOM     18  H   UNL     1     -46.451  -5.921 -34.859  0.00  0.00    +0.000 HD
ENDROOT
BRANCH  12  19
ATOM     19  C   UNL     1     -46.652  -4.615 -32.720  0.00  0.00    +0.000 C 
ATOM     20  O   UNL     1     -47.623  -4.185 -33.403  0.00  0.00    +0.000 OA
ATOM     21  N   UNL     1     -45.625  -3.703 -32.312  0.00  0.00    +0.000 N 
ATOM     22  H   UNL     1     -44.890  -4.044 -31.753  0.00  0.00    +0.000 HD
BRANCH  21  23
ATOM     23  C   UNL     1     -45.623  -2.297 -32.687  0.00  0.00    +0.000 C 
ATOM     24  C   UNL     1     -44.632  -2.056 -33.815  0.00  0.00    +0.000 C 
ATOM     25  C   UNL     1     -43.548  -1.156 -33.260  0.00  0.00    +0.000 C 
ATOM     26  C   UNL     1     -44.168  -0.467 -32.068  0.00  0.00    +0.000 C 
ATOM     27  C   UNL     1     -45.157  -1.464 -31.509  0.00  0.00    +0.000 C 
ENDBRANCH  21  23
ENDBRANCH  12  19
BRANCH  15  28
ATOM     28  C   UNL     1     -46.215  -9.501 -33.812  0.00  0.00    +0.000 C 
BRANCH  28  29
ATOM     29  C   UNL     1     -44.745  -9.901 -33.970  0.00  0.00    +0.000 C 
ATOM     30  C   UNL     1     -44.520 -11.366 -33.662  0.00  0.00    +0.000 C 
ATOM     31  C   UNL     1     -43.324 -11.371 -32.763  0.00  0.00    +0.000 C 
ATOM     32  C   UNL     1     -42.831  -9.946 -32.821  0.00  0.00    +0.000 C 
ATOM     33  O   UNL     1     -43.913  -9.120 -33.151  0.00  0.00    +0.000 OA
ENDBRANCH  28  29
ENDBRANCH  15  28
TORSDOF 4
ENDMDL
MODEL 3
REMARK VINA RESULT:      -7.0      9.235     11.690
REMARK  Name = ZINC000100627416
REMARK  4 active torsions:
REMARK  status: ('A' for Active; 'I' for Inactive)
REMARK    1  A    between atoms: C_12  and  C_19
REMARK    2  A    between atoms: N_15  and  C_28
REMARK    3  A    between atoms: N_21  and  C_23
REMARK    4  A    between atoms: C_28  and  C_29
REMARK                            x       y       z     vdW  Elec       q    Type
REMARK                         _______ _______ _______ _____ _____    ______ ____
ROOT
ATOM      1  C   UNL     1     -45.622 -19.065 -19.854  0.00  0.00    +0.000 C 
ATOM      2  C   UNL     1     -45.942 -17.616 -20.001  0.00  0.00    +0.000 A 
ATOM      3  C   UNL     1     -46.381 -16.903 -18.888  0.00  0.00    +0.000 A 
ATOM      4  C   UNL     1     -46.683 -15.548 -19.003  0.00  0.00    +0.000 A 
ATOM      5  C   UNL     1     -46.541 -14.920 -20.241  0.00  0.00    +0.000 A 
ATOM      6  N   UNL     1     -46.111 -15.614 -21.336  0.00  0.00    +0.000 N 
ATOM      7  C   UNL     1     -45.810 -16.954 -21.234  0.00  0.00    +0.000 A 
ATOM      8  N   UNL     1     -45.380 -17.641 -22.327  0.00  0.00    +0.000 NA
ATOM      9  C   UNL     1     -45.229 -17.041 -23.537  0.00  0.00    +0.000 A 
ATOM     10  C   UNL     1     -45.539 -15.679 -23.666  0.00  0.00    +0.000 A 
ATOM     11  C   UNL     1     -45.404 -15.067 -24.908  0.00  0.00    +0.000 A 
ATOM     12  C   UNL     1     -44.975 -15.789 -26.024  0.00  0.00    +0.000 A 
ATOM     13  C   UNL     1     -44.678 -17.166 -25.859  0.00  0.00    +0.000 A 
ATOM     14  N   UNL     1     -44.324 -17.880 -26.881  0.00  0.00    +0.000 NA
ATOM     15  N   UNL     1     -44.787 -17.755 -24.621  0.00  0.00    +0.000 N 
ATOM     16  C   UNL     1     -45.982 -14.972 -22.539  0.00  0.00    +0.000 A 
ATOM     17  O   UNL     1     -46.261 -13.742 -22.641  0.00  0.00    +0.000 OA
ATOM     18  H   UNL     1     -44.245 -17.463 -27.770  0.00  0.00    +0.000 HD
ENDROOT
BRANCH  12  19
ATOM     19  C   UNL     1     -44.860 -15.067 -27.318  0.00  0.00    +0.000 C 
ATOM     20  O   UNL     1     -43.959 -15.399 -28.137  0.00  0.00    +0.000 OA
ATOM     21  N   UNL     1     -45.764 -14.010 -27.662  0.00  0.00    +0.000 N 
ATOM     22  H   UNL     1     -46.482 -13.782 -27.028  0.00  0.00    +0.000 HD
BRANCH  21  23
ATOM     23  C   UNL     1     -45.666 -13.261 -28.906  0.00  0.00    +0.000 C 
ATOM     24  C   UNL     1     -44.758 -12.055 -28.723  0.00  0.00    +0.000 C 
ATOM     25  C   UNL     1     -45.623 -10.825 -28.902  0.00  0.00    +0.000 C 
ATOM     26  C   UNL     1     -46.823 -11.289 -29.693  0.00  0.00    +0.000 C 
ATOM     27  C   UNL     1     -47.035 -12.727 -29.278  0.00  0.00    +0.000 C 
ENDBRANCH  21  23
ENDBRANCH  12  19
BRANCH  15  28
ATOM     28  C   UNL     1     -44.446 -19.176 -24.454  0.00  0.00    +0.000 C 
BRANCH  28  29
ATOM     29  C   UNL     1     -42.937 -19.400 -24.314  0.00  0.00    +0.000 C 
ATOM     30  C   UNL     1     -42.241 -18.204 -23.700  0.00  0.00    +0.000 C 
ATOM     31  C   UNL     1     -41.053 -17.980 -24.582  0.00  0.00    +0.000 C 
ATOM     32  C   UNL     1     -41.042 -19.194 -25.477  0.00  0.00    +0.000 C 
ATOM     33  O   UNL     1     -42.348 -19.695 -25.555  0.00  0.00    +0.000 OA
ENDBRANCH  28  29
ENDBRANCH  15  28
TORSDOF 4
ENDMDL
