MODEL 1
REMARK VINA RESULT:      -5.8      0.000      0.000
REMARK  Name = ZINC000012786823
REMARK  2 active torsions:
REMARK  status: ('A' for Active; 'I' for Inactive)
REMARK    1  A    between atoms: C_1  and  C_15
REMARK    2  A    between atoms: N_13  and  C_21
REMARK                            x       y       z     vdW  Elec       q    Type
REMARK                         _______ _______ _______ _____ _____    ______ ____
ROOT
ATOM      1  C   UNL     1     -44.901  -3.182 -32.676  0.00  0.00    +0.000 A 
ATOM      2  C   UNL     1     -45.380  -1.990 -32.117  0.00  0.00    +0.000 A 
ATOM      3  C   UNL     1     -44.503  -0.946 -31.823  0.00  0.00    +0.000 A 
ATOM      4  O   UNL     1     -44.944   0.122 -31.326  0.00  0.00    +0.000 OA
ATOM      5  N   UNL     1     -43.175  -1.080 -32.071  0.00  0.00    +0.000 N 
ATOM      6  C   UNL     1     -42.662  -2.218 -32.608  0.00  0.00    +0.000 A 
ATOM      7  C   UNL     1     -41.288  -2.309 -32.851  0.00  0.00    +0.000 A 
ATOM      8  C   UNL     1     -40.750  -3.470 -33.412  0.00  0.00    +0.000 A 
ATOM      9  C   UNL     1     -41.584  -4.543 -33.734  0.00  0.00    +0.000 A 
ATOM     10  C   UNL     1     -42.958  -4.461 -33.493  0.00  0.00    +0.000 A 
ATOM     11  C   UNL     1     -43.514  -3.304 -32.922  0.00  0.00    +0.000 A 
ATOM     12  H   UNL     1     -42.568  -0.335 -31.857  0.00  0.00    +0.000 HD
ENDROOT
BRANCH   1  15
ATOM     13  N   UNL     1     -46.042  -5.372 -32.021  0.00  0.00    +0.000 N 
ATOM     14  C   UNL     1     -46.741  -6.575 -32.460  0.00  0.00    +0.000 C 
ATOM     15  C   UNL     1     -45.860  -4.283 -32.946  0.00  0.00    +0.000 C 
ATOM     16  O   UNL     1     -46.517  -4.272 -34.023  0.00  0.00    +0.000 OA
BRANCH  13  21
ATOM     17  C   UNL     1     -45.728  -7.640 -27.777  0.00  0.00    +0.000 C 
ATOM     18  C   UNL     1     -45.240  -6.203 -27.865  0.00  0.00    +0.000 C 
ATOM     19  C   UNL     1     -46.381  -5.250 -28.233  0.00  0.00    +0.000 C 
ATOM     20  C   UNL     1     -46.821  -5.431 -29.685  0.00  0.00    +0.000 C 
ATOM     21  C   UNL     1     -45.630  -5.247 -30.623  0.00  0.00    +0.000 C 
ATOM     22  C   UNL     1     -44.524  -6.249 -30.292  0.00  0.00    +0.000 C 
ATOM     23  C   UNL     1     -44.070  -6.072 -28.844  0.00  0.00    +0.000 C 
ENDBRANCH  13  21
ENDBRANCH   1  15
TORSDOF 2
ENDMDL
MODEL 2
REMARK VINA RESULT:      -5.8      1.851      2.810
REMARK  Name = ZINC000012786823
REMARK  2 active torsions:
REMARK  status: ('A' for Active; 'I' for Inactive)
REMARK    1  A    between atoms: C_1  and  C_15
REMARK    2  A    between atoms: N_13  and  C_21
REMARK                            x       y       z     vdW  Elec       q    Type
REMARK                         _______ _______ _______ _____ _____    ______ ____
ROOT
ATOM      1  C   UNL     1     -43.619  -4.780 -32.649  0.00  0.00    +0.000 A 
ATOM      2  C   UNL     1     -42.429  -5.501 -32.483  0.00  0.00    +0.000 A 
ATOM      3  C   UNL     1     -41.226  -4.832 -32.256  0.00  0.00    +0.000 A 
ATOM      4  O   UNL     1     -40.163  -5.488 -32.104  0.00  0.00    +0.000 OA
ATOM      5  N   UNL     1     -41.199  -3.476 -32.199  0.00  0.00    +0.000 N 
ATOM      6  C   UNL     1     -42.326  -2.734 -32.359  0.00  0.00    +0.000 A 
ATOM      7  C   UNL     1     -42.251  -1.339 -32.287  0.00  0.00    +0.000 A 
ATOM      8  C   UNL     1     -43.404  -0.566 -32.438  0.00  0.00    +0.000 A 
ATOM      9  C   UNL     1     -44.637  -1.184 -32.659  0.00  0.00    +0.000 A 
ATOM     10  C   UNL     1     -44.721  -2.576 -32.734  0.00  0.00    +0.000 A 
ATOM     11  C   UNL     1     -43.569  -3.368 -32.592  0.00  0.00    +0.000 A 
ATOM     12  H   UNL     1     -40.342  -3.018 -32.039  0.00  0.00    +0.000 HD
ENDROOT
BRANCH   1  15
ATOM     13  N   UNL     1     -45.637  -6.135 -31.862  0.00  0.00    +0.000 N 
ATOM     14  C   UNL     1     -46.671  -7.109 -32.192  0.00  0.00    +0.000 C 
ATOM     15  C   UNL     1     -44.875  -5.525 -32.921  0.00  0.00    +0.000 C 
ATOM     16  O   UNL     1     -45.273  -5.640 -34.113  0.00  0.00    +0.000 OA
BRANCH  13  21
ATOM     17  C   UNL     1     -46.393  -7.323 -27.249  0.00  0.00    +0.000 C 
ATOM     18  C   UNL     1     -45.697  -6.005 -27.550  0.00  0.00    +0.000 C 
ATOM     19  C   UNL     1     -46.608  -5.063 -28.342  0.00  0.00    +0.000 C 
ATOM     20  C   UNL     1     -46.811  -5.548 -29.777  0.00  0.00    +0.000 C 
ATOM     21  C   UNL     1     -45.460  -5.715 -30.471  0.00  0.00    +0.000 C 
ATOM     22  C   UNL     1     -44.584  -6.709 -29.711  0.00  0.00    +0.000 C 
ATOM     23  C   UNL     1     -44.368  -6.231 -28.276  0.00  0.00    +0.000 C 
ENDBRANCH  13  21
ENDBRANCH   1  15
TORSDOF 2
ENDMDL
MODEL 3
REMARK VINA RESULT:      -5.8      5.349      7.890
REMARK  Name = ZINC000012786823
REMARK  2 active torsions:
REMARK  status: ('A' for Active; 'I' for Inactive)
REMARK    1  A    between atoms: C_1  and  C_15
REMARK    2  A    between atoms: N_13  and  C_21
REMARK                            x       y       z     vdW  Elec       q    Type
REMARK                         _______ _______ _______ _____ _____    ______ ____
ROOT
ATOM      1  C   UNL     1     -46.979  -5.496 -25.478  0.00  0.00    +0.000 A 
ATOM      2  C   UNL     1     -47.105  -5.285 -26.857  0.00  0.00    +0.000 A 
ATOM      3  C   UNL     1     -47.292  -3.997 -27.359  0.00  0.00    +0.000 A 
ATOM      4  O   UNL     1     -47.399  -3.817 -28.599  0.00  0.00    +0.000 OA
ATOM      5  N   UNL     1     -47.360  -2.938 -26.512  0.00  0.00    +0.000 N 
ATOM      6  C   UNL     1     -47.248  -3.093 -25.167  0.00  0.00    +0.000 A 
ATOM      7  C   UNL     1     -47.319  -1.972 -24.334  0.00  0.00    +0.000 A 
ATOM      8  C   UNL     1     -47.194  -2.118 -22.950  0.00  0.00    +0.000 A 
ATOM      9  C   UNL     1     -46.997  -3.384 -22.394  0.00  0.00    +0.000 A 
ATOM     10  C   UNL     1     -46.927  -4.509 -23.219  0.00  0.00    +0.000 A 
ATOM     11  C   UNL     1     -47.057  -4.381 -24.612  0.00  0.00    +0.000 A 
ATOM     12  H   UNL     1     -47.493  -2.035 -26.881  0.00  0.00    +0.000 HD
ENDROOT
BRANCH   1  15
ATOM     13  N   UNL     1     -45.617  -7.645 -25.240  0.00  0.00    +0.000 N 
ATOM     14  C   UNL     1     -45.620  -9.086 -25.013  0.00  0.00    +0.000 C 
ATOM     15  C   UNL     1     -46.812  -6.885 -24.978  0.00  0.00    +0.000 C 
ATOM     16  O   UNL     1     -47.750  -7.417 -24.324  0.00  0.00    +0.000 OA
BRANCH  13  21
ATOM     17  C   UNL     1     -41.126  -8.301 -26.869  0.00  0.00    +0.000 C 
ATOM     18  C   UNL     1     -41.595  -6.880 -26.602  0.00  0.00    +0.000 C 
ATOM     19  C   UNL     1     -41.939  -6.676 -25.123  0.00  0.00    +0.000 C 
ATOM     20  C   UNL     1     -43.217  -7.418 -24.733  0.00  0.00    +0.000 C 
ATOM     21  C   UNL     1     -44.374  -6.979 -25.629  0.00  0.00    +0.000 C 
ATOM     22  C   UNL     1     -44.050  -7.249 -27.098  0.00  0.00    +0.000 C 
ATOM     23  C   UNL     1     -42.777  -6.507 -27.502  0.00  0.00    +0.000 C 
ENDBRANCH  13  21
ENDBRANCH   1  15
TORSDOF 2
ENDMDL
