MODEL 1
REMARK VINA RESULT:      -7.5      0.000      0.000
REMARK  Name = ZINC000014495283
REMARK  4 active torsions:
REMARK  status: ('A' for Active; 'I' for Inactive)
REMARK    1  A    between atoms: C_1  and  C_14
REMARK    2  A    between atoms: C_9  and  S_25
REMARK    3  A    between atoms: N_13  and  C_24
REMARK    4  A    between atoms: S_25  and  N_28
REMARK                            x       y       z     vdW  Elec       q    Type
REMARK                         _______ _______ _______ _____ _____    ______ ____
ROOT
ATOM      1  C   UNL     1     -45.427  -7.131 -25.891  0.00  0.00    +0.000 A 
ATOM      2  C   UNL     1     -44.570  -7.368 -24.808  0.00  0.00    +0.000 A 
ATOM      3  C   UNL     1     -43.193  -7.220 -24.955  0.00  0.00    +0.000 A 
ATOM      4  O   UNL     1     -42.430  -7.432 -23.978  0.00  0.00    +0.000 OA
ATOM      5  N   UNL     1     -42.669  -6.851 -26.154  0.00  0.00    +0.000 N 
ATOM      6  C   UNL     1     -43.460  -6.614 -27.233  0.00  0.00    +0.000 A 
ATOM      7  C   UNL     1     -42.879  -6.230 -28.445  0.00  0.00    +0.000 A 
ATOM      8  C   UNL     1     -43.684  -5.973 -29.558  0.00  0.00    +0.000 A 
ATOM      9  C   UNL     1     -45.073  -6.098 -29.464  0.00  0.00    +0.000 A 
ATOM     10  C   UNL     1     -45.660  -6.480 -28.255  0.00  0.00    +0.000 A 
ATOM     11  C   UNL     1     -44.866  -6.750 -27.129  0.00  0.00    +0.000 A 
ATOM     12  H   UNL     1     -41.694  -6.752 -26.243  0.00  0.00    +0.000 HD
ENDROOT
BRANCH   1  14
ATOM     13  N   UNL     1     -47.706  -6.321 -25.085  0.00  0.00    +0.000 N 
ATOM     14  C   UNL     1     -46.886  -7.325 -25.699  0.00  0.00    +0.000 C 
ATOM     15  O   UNL     1     -47.414  -8.424 -26.013  0.00  0.00    +0.000 OA
ATOM     16  H   UNL     1     -48.470  -6.635 -24.548  0.00  0.00    +0.000 HD
BRANCH  13  24
ATOM     17  C   UNL     1     -47.280  -4.815 -22.678  0.00  0.00    +0.000 C 
ATOM     18  C   UNL     1     -47.329  -4.138 -24.011  0.00  0.00    +0.000 A 
ATOM     19  C   UNL     1     -47.177  -2.741 -24.102  0.00  0.00    +0.000 A 
ATOM     20 CL   UNL     1     -46.922  -1.745 -22.676  0.00  0.00    +0.000 Cl
ATOM     21  C   UNL     1     -47.230  -2.114 -25.350  0.00  0.00    +0.000 A 
ATOM     22  C   UNL     1     -47.437  -2.865 -26.507  0.00  0.00    +0.000 A 
ATOM     23  C   UNL     1     -47.586  -4.249 -26.421  0.00  0.00    +0.000 A 
ATOM     24  C   UNL     1     -47.520  -4.900 -25.179  0.00  0.00    +0.000 A 
ENDBRANCH  13  24
ENDBRANCH   1  14
BRANCH   9  25
ATOM     25  S   UNL     1     -46.089  -5.773 -30.858  0.00  0.00    +0.000 S 
ATOM     26  O   UNL     1     -47.211  -4.853 -30.460  0.00  0.00    +0.000 OA
ATOM     27  O   UNL     1     -46.670  -7.070 -31.348  0.00  0.00    +0.000 OA
BRANCH  25  28
ATOM     28  N   UNL     1     -45.132  -5.046 -32.121  0.00  0.00    +0.000 NA
ATOM     29  C   UNL     1     -45.020  -3.594 -31.906  0.00  0.00    +0.000 C 
ATOM     30  C   UNL     1     -46.272  -2.850 -32.384  0.00  0.00    +0.000 C 
ATOM     31  O   UNL     1     -46.505  -3.135 -33.738  0.00  0.00    +0.000 OA
ATOM     32  C   UNL     1     -46.890  -4.483 -33.789  0.00  0.00    +0.000 C 
ATOM     33  C   UNL     1     -45.694  -5.376 -33.440  0.00  0.00    +0.000 C 
ENDBRANCH  25  28
ENDBRANCH   9  25
TORSDOF 4
ENDMDL
MODEL 2
REMARK VINA RESULT:      -7.0      4.348      7.906
REMARK  Name = ZINC000014495283
REMARK  4 active torsions:
REMARK  status: ('A' for Active; 'I' for Inactive)
REMARK    1  A    between atoms: C_1  and  C_14
REMARK    2  A    between atoms: C_9  and  S_25
REMARK    3  A    between atoms: N_13  and  C_24
REMARK    4  A    between atoms: S_25  and  N_28
REMARK                            x       y       z     vdW  Elec       q    Type
REMARK                         _______ _______ _______ _____ _____    ______ ____
ROOT
ATOM      1  C   UNL     1     -46.689  -5.023 -31.985  0.00  0.00    +0.000 A 
ATOM      2  C   UNL     1     -46.938  -4.627 -33.306  0.00  0.00    +0.000 A 
ATOM      3  C   UNL     1     -46.933  -5.567 -34.335  0.00  0.00    +0.000 A 
ATOM      4  O   UNL     1     -47.160  -5.204 -35.517  0.00  0.00    +0.000 OA
ATOM      5  N   UNL     1     -46.680  -6.875 -34.065  0.00  0.00    +0.000 N 
ATOM      6  C   UNL     1     -46.429  -7.305 -32.801  0.00  0.00    +0.000 A 
ATOM      7  C   UNL     1     -46.181  -8.661 -32.568  0.00  0.00    +0.000 A 
ATOM      8  C   UNL     1     -45.933  -9.116 -31.271  0.00  0.00    +0.000 A 
ATOM      9  C   UNL     1     -45.935  -8.218 -30.199  0.00  0.00    +0.000 A 
ATOM     10  C   UNL     1     -46.184  -6.861 -30.425  0.00  0.00    +0.000 A 
ATOM     11  C   UNL     1     -46.426  -6.386 -31.723  0.00  0.00    +0.000 A 
ATOM     12  H   UNL     1     -46.679  -7.526 -34.803  0.00  0.00    +0.000 HD
ENDROOT
BRANCH   1  14
ATOM     13  N   UNL     1     -45.520  -3.181 -30.666  0.00  0.00    +0.000 N 
ATOM     14  C   UNL     1     -46.679  -3.988 -30.922  0.00  0.00    +0.000 C 
ATOM     15  O   UNL     1     -47.682  -3.854 -30.174  0.00  0.00    +0.000 OA
ATOM     16  H   UNL     1     -45.366  -2.906 -29.733  0.00  0.00    +0.000 HD
BRANCH  13  24
ATOM     17  C   UNL     1     -43.125  -4.714 -31.059  0.00  0.00    +0.000 C 
ATOM     18  C   UNL     1     -43.373  -3.461 -31.837  0.00  0.00    +0.000 A 
ATOM     19  C   UNL     1     -42.422  -3.007 -32.771  0.00  0.00    +0.000 A 
ATOM     20 CL   UNL     1     -40.926  -3.882 -33.065  0.00  0.00    +0.000 Cl
ATOM     21  C   UNL     1     -42.657  -1.833 -33.490  0.00  0.00    +0.000 A 
ATOM     22  C   UNL     1     -43.830  -1.104 -33.285  0.00  0.00    +0.000 A 
ATOM     23  C   UNL     1     -44.774  -1.551 -32.362  0.00  0.00    +0.000 A 
ATOM     24  C   UNL     1     -44.564  -2.737 -31.641  0.00  0.00    +0.000 A 
ENDBRANCH  13  24
ENDBRANCH   1  14
BRANCH   9  25
ATOM     25  S   UNL     1     -45.628  -8.784 -28.567  0.00  0.00    +0.000 S 
ATOM     26  O   UNL     1     -45.411  -7.606 -27.658  0.00  0.00    +0.000 OA
ATOM     27  O   UNL     1     -44.388  -9.633 -28.573  0.00  0.00    +0.000 OA
BRANCH  25  28
ATOM     28  N   UNL     1     -46.983  -9.731 -28.013  0.00  0.00    +0.000 NA
ATOM     29  C   UNL     1     -47.436  -9.254 -26.697  0.00  0.00    +0.000 C 
ATOM     30  C   UNL     1     -46.557  -9.794 -25.562  0.00  0.00    +0.000 C 
ATOM     31  O   UNL     1     -46.538 -11.196 -25.603  0.00  0.00    +0.000 OA
ATOM     32  C   UNL     1     -45.822 -11.540 -26.759  0.00  0.00    +0.000 C 
ATOM     33  C   UNL     1     -46.635 -11.161 -28.003  0.00  0.00    +0.000 C 
ENDBRANCH  25  28
ENDBRANCH   9  25
TORSDOF 4
ENDMDL
MODEL 3
REMARK VINA RESULT:      -6.9     12.702     15.869
REMARK  Name = ZINC000014495283
REMARK  4 active torsions:
REMARK  status: ('A' for Active; 'I' for Inactive)
REMARK    1  A    between atoms: C_1  and  C_14
REMARK    2  A    between atoms: C_9  and  S_25
REMARK    3  A    between atoms: N_13  and  C_24
REMARK    4  A    between atoms: S_25  and  N_28
REMARK                            x       y       z     vdW  Elec       q    Type
REMARK                         _______ _______ _______ _____ _____    ______ ____
ROOT
ATOM      1  C   UNL     1     -44.472 -16.363 -22.844  0.00  0.00    +0.000 A 
ATOM      2  C   UNL     1     -45.411 -15.496 -23.416  0.00  0.00    +0.000 A 
ATOM      3  C   UNL     1     -46.170 -15.904 -24.512  0.00  0.00    +0.000 A 
ATOM      4  O   UNL     1     -47.014 -15.121 -25.018  0.00  0.00    +0.000 OA
ATOM      5  N   UNL     1     -46.000 -17.146 -25.036  0.00  0.00    +0.000 N 
ATOM      6  C   UNL     1     -45.098 -18.020 -24.518  0.00  0.00    +0.000 A 
ATOM      7  C   UNL     1     -44.961 -19.290 -25.085  0.00  0.00    +0.000 A 
ATOM      8  C   UNL     1     -44.045 -20.201 -24.552  0.00  0.00    +0.000 A 
ATOM      9  C   UNL     1     -43.263 -19.847 -23.448  0.00  0.00    +0.000 A 
ATOM     10  C   UNL     1     -43.397 -18.579 -22.875  0.00  0.00    +0.000 A 
ATOM     11  C   UNL     1     -44.306 -17.649 -23.403  0.00  0.00    +0.000 A 
ATOM     12  H   UNL     1     -46.542 -17.420 -25.810  0.00  0.00    +0.000 HD
ENDROOT
BRANCH   1  14
ATOM     13  N   UNL     1     -44.030 -16.178 -20.339  0.00  0.00    +0.000 N 
ATOM     14  C   UNL     1     -43.666 -15.880 -21.695  0.00  0.00    +0.000 C 
ATOM     15  O   UNL     1     -42.677 -15.129 -21.901  0.00  0.00    +0.000 OA
ATOM     16  H   UNL     1     -43.820 -15.495 -19.661  0.00  0.00    +0.000 HD
BRANCH  13  24
ATOM     17  C   UNL     1     -42.443 -18.187 -19.040  0.00  0.00    +0.000 C 
ATOM     18  C   UNL     1     -43.910 -18.385 -19.256  0.00  0.00    +0.000 A 
ATOM     19  C   UNL     1     -44.534 -19.574 -18.832  0.00  0.00    +0.000 A 
ATOM     20 CL   UNL     1     -43.634 -20.857 -18.038  0.00  0.00    +0.000 Cl
ATOM     21  C   UNL     1     -45.904 -19.755 -19.042  0.00  0.00    +0.000 A 
ATOM     22  C   UNL     1     -46.657 -18.765 -19.674  0.00  0.00    +0.000 A 
ATOM     23  C   UNL     1     -46.042 -17.585 -20.094  0.00  0.00    +0.000 A 
ATOM     24  C   UNL     1     -44.671 -17.377 -19.878  0.00  0.00    +0.000 A 
ENDBRANCH  13  24
ENDBRANCH   1  14
BRANCH   9  25
ATOM     25  S   UNL     1     -42.114 -20.988 -22.773  0.00  0.00    +0.000 S 
ATOM     26  O   UNL     1     -42.522 -22.389 -23.137  0.00  0.00    +0.000 OA
ATOM     27  O   UNL     1     -42.116 -20.851 -21.276  0.00  0.00    +0.000 OA
BRANCH  25  28
ATOM     28  N   UNL     1     -40.520 -20.645 -23.390  0.00  0.00    +0.000 NA
ATOM     29  C   UNL     1     -39.833 -21.895 -23.755  0.00  0.00    +0.000 C 
ATOM     30  C   UNL     1     -39.239 -22.597 -22.528  0.00  0.00    +0.000 C 
ATOM     31  O   UNL     1     -38.365 -21.727 -21.860  0.00  0.00    +0.000 OA
ATOM     32  C   UNL     1     -39.170 -20.723 -21.301  0.00  0.00    +0.000 C 
ATOM     33  C   UNL     1     -39.757 -19.849 -22.416  0.00  0.00    +0.000 C 
ENDBRANCH  25  28
ENDBRANCH   9  25
TORSDOF 4
ENDMDL
