MODEL 1
REMARK VINA RESULT:      -7.7      0.000      0.000
REMARK  Name = ZINC000008996339
REMARK  4 active torsions:
REMARK  status: ('A' for Active; 'I' for Inactive)
REMARK    1  A    between atoms: C_4  and  O_5
REMARK    2  A    between atoms: C_6  and  C_22
REMARK    3  A    between atoms: C_7  and  C_9
REMARK    4  A    between atoms: C_22  and  C_24
REMARK                            x       y       z     vdW  Elec       q    Type
REMARK                         _______ _______ _______ _____ _____    ______ ____
ROOT
ATOM      1  N   UNL     1     -45.462 -14.803 -25.694  0.00  0.00    +0.000 N 
ATOM      2  C   UNL     1     -44.735 -15.526 -26.673  0.00  0.00    +0.000 C 
ATOM      3  O   UNL     1     -44.207 -15.015 -27.696  0.00  0.00    +0.000 OA
ATOM      4  C   UNL     1     -44.709 -16.923 -26.326  0.00  0.00    +0.000 C 
ATOM      5  C   UNL     1     -45.386 -17.097 -25.190  0.00  0.00    +0.000 C 
ATOM      6  C   UNL     1     -45.901 -15.763 -24.677  0.00  0.00    +0.000 C 
ATOM      7  C   UNL     1     -45.656  -9.874 -25.221  0.00  0.00    +0.000 C 
ATOM      8  C   UNL     1     -45.931 -11.294 -25.563  0.00  0.00    +0.000 A 
ATOM      9  C   UNL     1     -45.146 -12.371 -25.201  0.00  0.00    +0.000 A 
ATOM     10  C   UNL     1     -45.847 -13.422 -25.766  0.00  0.00    +0.000 A 
ATOM     11  N   UNL     1     -46.950 -12.988 -26.404  0.00  0.00    +0.000 NA
ATOM     12  O   UNL     1     -46.966 -11.697 -26.260  0.00  0.00    +0.000 OA
ENDROOT
BRANCH   6  13
ATOM     13  C   UNL     1     -45.306 -15.420 -23.339  0.00  0.00    +0.000 A 
ATOM     14  C   UNL     1     -46.160 -15.149 -22.263  0.00  0.00    +0.000 A 
ATOM     15  C   UNL     1     -45.632 -14.818 -21.013  0.00  0.00    +0.000 A 
ATOM     16  C   UNL     1     -44.248 -14.751 -20.833  0.00  0.00    +0.000 A 
ATOM     17  C   UNL     1     -43.687 -14.400 -19.503  0.00  0.00    +0.000 C 
ATOM     18  C   UNL     1     -43.390 -15.013 -21.906  0.00  0.00    +0.000 A 
ATOM     19  C   UNL     1     -43.916 -15.344 -23.156  0.00  0.00    +0.000 A 
ENDBRANCH   6  13
BRANCH   4  20
ATOM     20  O   UNL     1     -44.096 -17.924 -27.070  0.00  0.00    +0.000 OA
ATOM     21  H   UNL     1     -44.080 -18.804 -26.749  0.00  0.00    +0.000 HD
ENDBRANCH   4  20
BRANCH   5  22
ATOM     22  C   UNL     1     -45.600 -18.405 -24.530  0.00  0.00    +0.000 C 
ATOM     23  O   UNL     1     -46.197 -19.327 -25.149  0.00  0.00    +0.000 OA
BRANCH  22  24
ATOM     24  C   UNL     1     -45.126 -18.661 -23.158  0.00  0.00    +0.000 A 
ATOM     25  C   UNL     1     -43.829 -19.066 -22.831  0.00  0.00    +0.000 A 
ATOM     26  C   UNL     1     -43.879 -19.170 -21.457  0.00  0.00    +0.000 A 
ATOM     27  C   UNL     1     -42.887 -19.533 -20.550  0.00  0.00    +0.000 A 
ATOM     28  C   UNL     1     -43.229 -19.552 -19.186  0.00  0.00    +0.000 A 
ATOM     29  C   UNL     1     -44.534 -19.214 -18.768  0.00  0.00    +0.000 A 
ATOM     30  C   UNL     1     -45.515 -18.853 -19.709  0.00  0.00    +0.000 A 
ATOM     31  C   UNL     1     -45.144 -18.844 -21.052  0.00  0.00    +0.000 A 
ATOM     32  O   UNL     1     -45.884 -18.542 -22.083  0.00  0.00    +0.000 OA
ENDBRANCH  22  24
ENDBRANCH   5  22
TORSDOF 4
ENDMDL
MODEL 2
REMARK VINA RESULT:      -7.1      7.591     13.731
REMARK  Name = ZINC000008996339
REMARK  4 active torsions:
REMARK  status: ('A' for Active; 'I' for Inactive)
REMARK    1  A    between atoms: C_4  and  O_5
REMARK    2  A    between atoms: C_6  and  C_22
REMARK    3  A    between atoms: C_7  and  C_9
REMARK    4  A    between atoms: C_22  and  C_24
REMARK                            x       y       z     vdW  Elec       q    Type
REMARK                         _______ _______ _______ _____ _____    ______ ____
ROOT
ATOM      1  N   UNL     1     -46.421  -6.466 -26.506  0.00  0.00    +0.000 N 
ATOM      2  C   UNL     1     -46.817  -5.124 -26.272  0.00  0.00    +0.000 C 
ATOM      3  O   UNL     1     -46.989  -4.617 -25.132  0.00  0.00    +0.000 OA
ATOM      4  C   UNL     1     -47.007  -4.447 -27.528  0.00  0.00    +0.000 C 
ATOM      5  C   UNL     1     -46.755  -5.302 -28.520  0.00  0.00    +0.000 C 
ATOM      6  C   UNL     1     -46.337  -6.650 -27.958  0.00  0.00    +0.000 C 
ATOM      7  C   UNL     1     -44.681  -9.649 -23.132  0.00  0.00    +0.000 C 
ATOM      8  C   UNL     1     -45.543  -8.875 -24.063  0.00  0.00    +0.000 A 
ATOM      9  C   UNL     1     -45.112  -7.860 -24.895  0.00  0.00    +0.000 A 
ATOM     10  C   UNL     1     -46.294  -7.501 -25.521  0.00  0.00    +0.000 A 
ATOM     11  N   UNL     1     -47.325  -8.248 -25.085  0.00  0.00    +0.000 NA
ATOM     12  O   UNL     1     -46.832  -9.066 -24.205  0.00  0.00    +0.000 OA
ENDROOT
BRANCH   6  13
ATOM     13  C   UNL     1     -44.932  -7.003 -28.362  0.00  0.00    +0.000 A 
ATOM     14  C   UNL     1     -44.698  -8.212 -29.028  0.00  0.00    +0.000 A 
ATOM     15  C   UNL     1     -43.401  -8.569 -29.405  0.00  0.00    +0.000 A 
ATOM     16  C   UNL     1     -42.330  -7.720 -29.113  0.00  0.00    +0.000 A 
ATOM     17  C   UNL     1     -40.951  -8.099 -29.515  0.00  0.00    +0.000 C 
ATOM     18  C   UNL     1     -42.556  -6.515 -28.441  0.00  0.00    +0.000 A 
ATOM     19  C   UNL     1     -43.852  -6.157 -28.064  0.00  0.00    +0.000 A 
ENDBRANCH   6  13
BRANCH   4  20
ATOM     20  O   UNL     1     -47.411  -3.125 -27.674  0.00  0.00    +0.000 OA
ATOM     21  H   UNL     1     -47.205  -2.496 -27.011  0.00  0.00    +0.000 HD
ENDBRANCH   4  20
BRANCH   5  22
ATOM     22  C   UNL     1     -46.868  -4.976 -29.961  0.00  0.00    +0.000 C 
ATOM     23  O   UNL     1     -47.756  -5.535 -30.659  0.00  0.00    +0.000 OA
BRANCH  22  24
ATOM     24  C   UNL     1     -45.965  -4.005 -30.603  0.00  0.00    +0.000 A 
ATOM     25  C   UNL     1     -44.758  -4.339 -31.225  0.00  0.00    +0.000 A 
ATOM     26  C   UNL     1     -44.292  -3.117 -31.660  0.00  0.00    +0.000 A 
ATOM     27  C   UNL     1     -43.129  -2.798 -32.357  0.00  0.00    +0.000 A 
ATOM     28  C   UNL     1     -42.910  -1.445 -32.673  0.00  0.00    +0.000 A 
ATOM     29  C   UNL     1     -43.845  -0.459 -32.293  0.00  0.00    +0.000 A 
ATOM     30  C   UNL     1     -45.011  -0.812 -31.589  0.00  0.00    +0.000 A 
ATOM     31  C   UNL     1     -45.197  -2.160 -31.291  0.00  0.00    +0.000 A 
ATOM     32  O   UNL     1     -46.196  -2.706 -30.654  0.00  0.00    +0.000 OA
ENDBRANCH  22  24
ENDBRANCH   5  22
TORSDOF 4
ENDMDL
MODEL 3
REMARK VINA RESULT:      -7.1      3.630      7.051
REMARK  Name = ZINC000008996339
REMARK  4 active torsions:
REMARK  status: ('A' for Active; 'I' for Inactive)
REMARK    1  A    between atoms: C_4  and  O_5
REMARK    2  A    between atoms: C_6  and  C_22
REMARK    3  A    between atoms: C_7  and  C_9
REMARK    4  A    between atoms: C_22  and  C_24
REMARK                            x       y       z     vdW  Elec       q    Type
REMARK                         _______ _______ _______ _____ _____    ______ ____
ROOT
ATOM      1  N   UNL     1     -42.932 -19.822 -21.816  0.00  0.00    +0.000 N 
ATOM      2  C   UNL     1     -42.455 -19.458 -20.531  0.00  0.00    +0.000 C 
ATOM      3  O   UNL     1     -41.281 -19.654 -20.120  0.00  0.00    +0.000 OA
ATOM      4  C   UNL     1     -43.518 -18.850 -19.773  0.00  0.00    +0.000 C 
ATOM      5  C   UNL     1     -44.622 -18.827 -20.521  0.00  0.00    +0.000 C 
ATOM      6  C   UNL     1     -44.339 -19.419 -21.891  0.00  0.00    +0.000 C 
ATOM      7  C   UNL     1     -40.175 -21.256 -25.675  0.00  0.00    +0.000 C 
ATOM      8  C   UNL     1     -41.035 -21.214 -24.465  0.00  0.00    +0.000 A 
ATOM      9  C   UNL     1     -41.491 -20.066 -23.846  0.00  0.00    +0.000 A 
ATOM     10  C   UNL     1     -42.226 -20.594 -22.798  0.00  0.00    +0.000 A 
ATOM     11  N   UNL     1     -42.198 -21.940 -22.810  0.00  0.00    +0.000 NA
ATOM     12  O   UNL     1     -41.468 -22.277 -23.830  0.00  0.00    +0.000 OA
ENDROOT
BRANCH   6  13
ATOM     13  C   UNL     1     -44.537 -18.403 -22.982  0.00  0.00    +0.000 A 
ATOM     14  C   UNL     1     -45.506 -18.637 -23.964  0.00  0.00    +0.000 A 
ATOM     15  C   UNL     1     -45.702 -17.713 -24.994  0.00  0.00    +0.000 A 
ATOM     16  C   UNL     1     -44.926 -16.553 -25.049  0.00  0.00    +0.000 A 
ATOM     17  C   UNL     1     -45.135 -15.570 -26.144  0.00  0.00    +0.000 C 
ATOM     18  C   UNL     1     -43.950 -16.317 -24.076  0.00  0.00    +0.000 A 
ATOM     19  C   UNL     1     -43.753 -17.240 -23.047  0.00  0.00    +0.000 A 
ENDBRANCH   6  13
BRANCH   4  20
ATOM     20  O   UNL     1     -43.409 -18.387 -18.467  0.00  0.00    +0.000 OA
ATOM     21  H   UNL     1     -43.294 -18.994 -17.763  0.00  0.00    +0.000 HD
ENDBRANCH   4  20
BRANCH   5  22
ATOM     22  C   UNL     1     -45.931 -18.299 -20.074  0.00  0.00    +0.000 C 
ATOM     23  O   UNL     1     -46.878 -19.096 -19.837  0.00  0.00    +0.000 OA
BRANCH  22  24
ATOM     24  C   UNL     1     -46.156 -16.854 -19.893  0.00  0.00    +0.000 A 
ATOM     25  C   UNL     1     -46.470 -16.248 -18.673  0.00  0.00    +0.000 A 
ATOM     26  C   UNL     1     -46.581 -14.917 -19.013  0.00  0.00    +0.000 A 
ATOM     27  C   UNL     1     -46.875 -13.811 -18.219  0.00  0.00    +0.000 A 
ATOM     28  C   UNL     1     -46.922 -12.553 -18.847  0.00  0.00    +0.000 A 
ATOM     29  C   UNL     1     -46.677 -12.433 -20.233  0.00  0.00    +0.000 A 
ATOM     30  C   UNL     1     -46.383 -13.569 -21.008  0.00  0.00    +0.000 A 
ATOM     31  C   UNL     1     -46.345 -14.800 -20.355  0.00  0.00    +0.000 A 
ATOM     32  O   UNL     1     -46.094 -15.971 -20.873  0.00  0.00    +0.000 OA
ENDBRANCH  22  24
ENDBRANCH   5  22
TORSDOF 4
ENDMDL
