MODEL 1
REMARK VINA RESULT:      -6.7      0.000      0.000
REMARK  Name = ZINC000063474270 CSC027367595 MCULE-3459856010 MolPort-020-069-293
REMARK  4 active torsions:
REMARK  status: ('A' for Active; 'I' for Inactive)
REMARK    1  A    between atoms: C_1  and  C_24
REMARK    2  A    between atoms: C_9  and  C_10
REMARK    3  A    between atoms: C_24  and  S_25
REMARK    4  A    between atoms: S_25  and  C_29
REMARK                            x       y       z     vdW  Elec       q    Type
REMARK                         _______ _______ _______ _____ _____    ______ ____
ROOT
ATOM      1  C   UNL     1     -46.922  -5.385 -26.454  0.00  0.00    +0.000 A 
ATOM      2  C   UNL     1     -47.094  -4.308 -25.613  0.00  0.00    +0.000 A 
ATOM      3  C   UNL     1     -47.236  -3.205 -26.411  0.00  0.00    +0.000 A 
ATOM      4  C   UNL     1     -47.438  -1.933 -25.878  0.00  0.00    +0.000 A 
ATOM      5  C   UNL     1     -47.492  -1.816 -24.477  0.00  0.00    +0.000 A 
ATOM      6  C   UNL     1     -47.347  -2.955 -23.654  0.00  0.00    +0.000 A 
ATOM      7  C   UNL     1     -47.145  -4.226 -24.222  0.00  0.00    +0.000 A 
ATOM      8  O   UNL     1     -47.154  -3.535 -27.677  0.00  0.00    +0.000 OA
ATOM      9  C   UNL     1     -46.956  -4.841 -27.744  0.00  0.00    +0.000 A 
ENDROOT
BRANCH   9  10
ATOM     10  C   UNL     1     -46.820  -5.556 -29.026  0.00  0.00    +0.000 C 
ATOM     11  N   UNL     1     -45.648  -6.326 -29.341  0.00  0.00    +0.000 N 
ATOM     12  C   UNL     1     -45.736  -7.627 -29.969  0.00  0.00    +0.000 A 
ATOM     13  C   UNL     1     -44.585  -8.433 -30.049  0.00  0.00    +0.000 A 
ATOM     14  C   UNL     1     -44.656  -9.709 -30.616  0.00  0.00    +0.000 A 
ATOM     15  C   UNL     1     -45.869 -10.189 -31.114  0.00  0.00    +0.000 A 
ATOM     16  C   UNL     1     -47.017  -9.396 -31.040  0.00  0.00    +0.000 A 
ATOM     17  C   UNL     1     -46.951  -8.124 -30.465  0.00  0.00    +0.000 A 
ATOM     18  N   UNL     1     -43.346  -7.959 -29.525  0.00  0.00    +0.000 N 
ATOM     19  C   UNL     1     -43.229  -6.623 -29.040  0.00  0.00    +0.000 C 
ATOM     20  O   UNL     1     -42.159  -6.244 -28.498  0.00  0.00    +0.000 OA
ATOM     21  C   UNL     1     -44.350  -5.648 -29.238  0.00  0.00    +0.000 C 
ATOM     22  O   UNL     1     -47.747  -5.453 -29.874  0.00  0.00    +0.000 OA
ATOM     23  H   UNL     1     -42.566  -8.559 -29.498  0.00  0.00    +0.000 HD
ENDBRANCH   9  10
BRANCH   1  24
ATOM     24  C   UNL     1     -46.766  -6.819 -26.057  0.00  0.00    +0.000 C 
BRANCH  24  25
ATOM     25  S   UNL     1     -45.013  -7.247 -25.829  0.00  0.00    +0.000 S 
BRANCH  25  29
ATOM     26  C   UNL     1     -46.602 -12.212 -27.896  0.00  0.00    +0.000 C 
ATOM     27  C   UNL     1     -45.916 -11.001 -27.376  0.00  0.00    +0.000 A 
ATOM     28  S   UNL     1     -46.690  -9.574 -26.936  0.00  0.00    +0.000 S 
ATOM     29  C   UNL     1     -45.212  -8.883 -26.519  0.00  0.00    +0.000 A 
ATOM     30  N   UNL     1     -44.188  -9.741 -26.717  0.00  0.00    +0.000 NA
ATOM     31  N   UNL     1     -44.580 -10.920 -27.197  0.00  0.00    +0.000 NA
ENDBRANCH  25  29
ENDBRANCH  24  25
ENDBRANCH   1  24
TORSDOF 4
ENDMDL
MODEL 2
REMARK VINA RESULT:      -6.4      4.198      5.987
REMARK  Name = ZINC000063474270 CSC027367595 MCULE-3459856010 MolPort-020-069-293
REMARK  4 active torsions:
REMARK  status: ('A' for Active; 'I' for Inactive)
REMARK    1  A    between atoms: C_1  and  C_24
REMARK    2  A    between atoms: C_9  and  C_10
REMARK    3  A    between atoms: C_24  and  S_25
REMARK    4  A    between atoms: S_25  and  C_29
REMARK                            x       y       z     vdW  Elec       q    Type
REMARK                         _______ _______ _______ _____ _____    ______ ____
ROOT
ATOM      1  C   UNL     1     -43.673  -3.847 -31.769  0.00  0.00    +0.000 A 
ATOM      2  C   UNL     1     -42.992  -2.701 -32.116  0.00  0.00    +0.000 A 
ATOM      3  C   UNL     1     -43.910  -1.685 -32.121  0.00  0.00    +0.000 A 
ATOM      4  C   UNL     1     -43.553  -0.374 -32.426  0.00  0.00    +0.000 A 
ATOM      5  C   UNL     1     -42.203  -0.122 -32.734  0.00  0.00    +0.000 A 
ATOM      6  C   UNL     1     -41.256  -1.170 -32.728  0.00  0.00    +0.000 A 
ATOM      7  C   UNL     1     -41.647  -2.485 -32.415  0.00  0.00    +0.000 A 
ATOM      8  O   UNL     1     -45.100  -2.135 -31.808  0.00  0.00    +0.000 OA
ATOM      9  C   UNL     1     -45.000  -3.437 -31.597  0.00  0.00    +0.000 A 
ENDROOT
BRANCH   9  10
ATOM     10  C   UNL     1     -46.158  -4.269 -31.218  0.00  0.00    +0.000 C 
ATOM     11  N   UNL     1     -46.519  -5.444 -31.964  0.00  0.00    +0.000 N 
ATOM     12  C   UNL     1     -46.910  -6.672 -31.307  0.00  0.00    +0.000 A 
ATOM     13  C   UNL     1     -47.034  -7.851 -32.066  0.00  0.00    +0.000 A 
ATOM     14  C   UNL     1     -47.373  -9.057 -31.447  0.00  0.00    +0.000 A 
ATOM     15  C   UNL     1     -47.598  -9.099 -30.069  0.00  0.00    +0.000 A 
ATOM     16  C   UNL     1     -47.478  -7.935 -29.306  0.00  0.00    +0.000 A 
ATOM     17  C   UNL     1     -47.131  -6.729 -29.922  0.00  0.00    +0.000 A 
ATOM     18  N   UNL     1     -46.785  -7.822 -33.471  0.00  0.00    +0.000 N 
ATOM     19  C   UNL     1     -46.544  -6.584 -34.137  0.00  0.00    +0.000 C 
ATOM     20  O   UNL     1     -46.238  -6.579 -35.358  0.00  0.00    +0.000 OA
ATOM     21  C   UNL     1     -46.723  -5.288 -33.409  0.00  0.00    +0.000 C 
ATOM     22  O   UNL     1     -46.861  -3.910 -30.236  0.00  0.00    +0.000 OA
ATOM     23  H   UNL     1     -46.781  -8.663 -33.983  0.00  0.00    +0.000 HD
ENDBRANCH   9  10
BRANCH   1  24
ATOM     24  C   UNL     1     -43.095  -5.215 -31.589  0.00  0.00    +0.000 C 
BRANCH  24  25
ATOM     25  S   UNL     1     -42.824  -6.027 -33.194  0.00  0.00    +0.000 S 
BRANCH  25  29
ATOM     26  C   UNL     1     -44.107 -10.734 -30.429  0.00  0.00    +0.000 C 
ATOM     27  C   UNL     1     -43.853  -9.633 -31.393  0.00  0.00    +0.000 A 
ATOM     28  S   UNL     1     -43.329  -8.090 -30.971  0.00  0.00    +0.000 S 
ATOM     29  C   UNL     1     -43.336  -7.629 -32.591  0.00  0.00    +0.000 A 
ATOM     30  N   UNL     1     -43.723  -8.642 -33.396  0.00  0.00    +0.000 NA
ATOM     31  N   UNL     1     -44.014  -9.757 -32.728  0.00  0.00    +0.000 NA
ENDBRANCH  25  29
ENDBRANCH  24  25
ENDBRANCH   1  24
TORSDOF 4
ENDMDL
MODEL 3
REMARK VINA RESULT:      -6.3      2.857      5.254
REMARK  Name = ZINC000063474270 CSC027367595 MCULE-3459856010 MolPort-020-069-293
REMARK  4 active torsions:
REMARK  status: ('A' for Active; 'I' for Inactive)
REMARK    1  A    between atoms: C_1  and  C_24
REMARK    2  A    between atoms: C_9  and  C_10
REMARK    3  A    between atoms: C_24  and  S_25
REMARK    4  A    between atoms: S_25  and  C_29
REMARK                            x       y       z     vdW  Elec       q    Type
REMARK                         _______ _______ _______ _____ _____    ______ ____
ROOT
ATOM      1  C   UNL     1     -46.912  -5.535 -28.072  0.00  0.00    +0.000 A 
ATOM      2  C   UNL     1     -47.055  -4.623 -27.050  0.00  0.00    +0.000 A 
ATOM      3  C   UNL     1     -46.933  -5.322 -25.880  0.00  0.00    +0.000 A 
ATOM      4  C   UNL     1     -47.019  -4.698 -24.638  0.00  0.00    +0.000 A 
ATOM      5  C   UNL     1     -47.239  -3.308 -24.622  0.00  0.00    +0.000 A 
ATOM      6  C   UNL     1     -47.364  -2.586 -25.830  0.00  0.00    +0.000 A 
ATOM      7  C   UNL     1     -47.271  -3.245 -27.069  0.00  0.00    +0.000 A 
ATOM      8  O   UNL     1     -46.733  -6.595 -26.120  0.00  0.00    +0.000 OA
ATOM      9  C   UNL     1     -46.723  -6.765 -27.431  0.00  0.00    +0.000 A 
ENDROOT
BRANCH   9  10
ATOM     10  C   UNL     1     -46.517  -8.084 -28.058  0.00  0.00    +0.000 C 
ATOM     11  N   UNL     1     -45.391  -8.913 -27.721  0.00  0.00    +0.000 N 
ATOM     12  C   UNL     1     -45.529 -10.338 -27.517  0.00  0.00    +0.000 A 
ATOM     13  C   UNL     1     -44.454 -11.064 -26.971  0.00  0.00    +0.000 A 
ATOM     14  C   UNL     1     -44.578 -12.435 -26.728  0.00  0.00    +0.000 A 
ATOM     15  C   UNL     1     -45.771 -13.096 -27.034  0.00  0.00    +0.000 A 
ATOM     16  C   UNL     1     -46.844 -12.385 -27.576  0.00  0.00    +0.000 A 
ATOM     17  C   UNL     1     -46.725 -11.012 -27.812  0.00  0.00    +0.000 A 
ATOM     18  N   UNL     1     -43.240 -10.393 -26.637  0.00  0.00    +0.000 N 
ATOM     19  C   UNL     1     -43.055  -9.020 -26.974  0.00  0.00    +0.000 C 
ATOM     20  O   UNL     1     -42.018  -8.415 -26.596  0.00  0.00    +0.000 OA
ATOM     21  C   UNL     1     -44.056  -8.314 -27.837  0.00  0.00    +0.000 C 
ATOM     22  O   UNL     1     -47.335  -8.467 -28.937  0.00  0.00    +0.000 OA
ATOM     23  H   UNL     1     -42.524 -10.883 -26.170  0.00  0.00    +0.000 HD
ENDBRANCH   9  10
BRANCH   1  24
ATOM     24  C   UNL     1     -46.927  -5.247 -29.541  0.00  0.00    +0.000 C 
BRANCH  24  25
ATOM     25  S   UNL     1     -45.282  -5.498 -30.274  0.00  0.00    +0.000 S 
BRANCH  25  29
ATOM     26  C   UNL     1     -44.042  -0.482 -32.455  0.00  0.00    +0.000 C 
ATOM     27  C   UNL     1     -44.604  -1.679 -31.777  0.00  0.00    +0.000 A 
ATOM     28  S   UNL     1     -43.928  -3.219 -31.831  0.00  0.00    +0.000 S 
ATOM     29  C   UNL     1     -45.166  -3.813 -30.857  0.00  0.00    +0.000 A 
ATOM     30  N   UNL     1     -46.043  -2.842 -30.518  0.00  0.00    +0.000 NA
ATOM     31  N   UNL     1     -45.730  -1.654 -31.032  0.00  0.00    +0.000 NA
ENDBRANCH  25  29
ENDBRANCH  24  25
ENDBRANCH   1  24
TORSDOF 4
ENDMDL
