MODEL 1
REMARK VINA RESULT:      -6.7      0.000      0.000
REMARK  Name = ZINC000408624461
REMARK  4 active torsions:
REMARK  status: ('A' for Active; 'I' for Inactive)
REMARK    1  A    between atoms: C_1  and  N_2
REMARK    2  A    between atoms: C_1  and  C_17
REMARK    3  A    between atoms: N_18  and  C_20
REMARK    4  A    between atoms: C_25  and  N_27
REMARK                            x       y       z     vdW  Elec       q    Type
REMARK                         _______ _______ _______ _____ _____    ______ ____
ROOT
ATOM      1  C   UNL     1     -44.753 -14.453 -23.394  0.00  0.00    +0.000 C 
ENDROOT
BRANCH   1   2
ATOM      2  N   UNL     1     -45.332 -14.221 -24.708  0.00  0.00    +0.000 N 
ATOM      3  C   UNL     1     -45.861 -12.997 -25.183  0.00  0.00    +0.000 C 
ATOM      4  O   UNL     1     -46.008 -11.980 -24.455  0.00  0.00    +0.000 OA
ATOM      5  C   UNL     1     -46.181 -13.029 -26.646  0.00  0.00    +0.000 C 
ATOM      6  C   UNL     1     -45.785 -14.488 -27.079  0.00  0.00    +0.000 C 
ATOM      7  C   UNL     1     -45.268 -15.105 -25.814  0.00  0.00    +0.000 C 
ATOM      8  O   UNL     1     -44.779 -16.262 -25.743  0.00  0.00    +0.000 OA
ATOM      9  C   UNL     1     -44.711 -14.425 -28.204  0.00  0.00    +0.000 C 
ATOM     10  C   UNL     1     -43.545 -13.594 -27.672  0.00  0.00    +0.000 C 
ATOM     11  C   UNL     1     -43.875 -12.349 -27.288  0.00  0.00    +0.000 C 
ATOM     12  C   UNL     1     -45.352 -11.995 -27.462  0.00  0.00    +0.000 C 
ATOM     13  C   UNL     1     -45.795 -12.231 -28.948  0.00  0.00    +0.000 C 
ATOM     14  C   UNL     1     -44.680 -12.463 -29.966  0.00  0.00    +0.000 C 
ATOM     15  C   UNL     1     -45.415 -13.673 -29.388  0.00  0.00    +0.000 C 
ENDBRANCH   1   2
BRANCH   1  17
ATOM     16  O   UNL     1     -46.667 -13.951 -22.088  0.00  0.00    +0.000 OA
ATOM     17  C   UNL     1     -45.817 -14.822 -22.411  0.00  0.00    +0.000 C 
ATOM     18  N   UNL     1     -45.909 -16.131 -21.831  0.00  0.00    +0.000 N 
ATOM     19  H   UNL     1     -46.601 -16.245 -21.138  0.00  0.00    +0.000 HD
BRANCH  18  20
ATOM     20  C   UNL     1     -45.124 -17.293 -22.127  0.00  0.00    +0.000 A 
ATOM     21  C   UNL     1     -44.119 -17.673 -21.234  0.00  0.00    +0.000 A 
ATOM     22  C   UNL     1     -43.336 -18.802 -21.490  0.00  0.00    +0.000 A 
ATOM     23  C   UNL     1     -43.544 -19.563 -22.645  0.00  0.00    +0.000 A 
ATOM     24 CL   UNL     1     -42.530 -20.967 -22.930  0.00  0.00    +0.000 Cl
ATOM     25  C   UNL     1     -44.549 -19.193 -23.553  0.00  0.00    +0.000 A 
ATOM     26  C   UNL     1     -45.337 -18.063 -23.279  0.00  0.00    +0.000 A 
BRANCH  25  27
ATOM     27  N   UNL     1     -44.749 -19.959 -24.748  0.00  0.00    +0.000 N 
ATOM     28  O   UNL     1     -45.797 -19.851 -25.418  0.00  0.00    +0.000 OA
ATOM     29  O   UNL     1     -45.903 -19.841 -25.488  0.00  0.00    +0.000 OA
ENDBRANCH  25  27
ENDBRANCH  18  20
ENDBRANCH   1  17
TORSDOF 4
ENDMDL
MODEL 2
REMARK VINA RESULT:      -6.7      4.780      6.456
REMARK  Name = ZINC000408624461
REMARK  4 active torsions:
REMARK  status: ('A' for Active; 'I' for Inactive)
REMARK    1  A    between atoms: C_1  and  N_2
REMARK    2  A    between atoms: C_1  and  C_17
REMARK    3  A    between atoms: N_18  and  C_20
REMARK    4  A    between atoms: C_25  and  N_27
REMARK                            x       y       z     vdW  Elec       q    Type
REMARK                         _______ _______ _______ _____ _____    ______ ____
ROOT
ATOM      1  C   UNL     1     -42.228 -17.664 -20.581  0.00  0.00    +0.000 C 
ENDROOT
BRANCH   1   2
ATOM      2  N   UNL     1     -43.541 -17.227 -20.131  0.00  0.00    +0.000 N 
ATOM      3  C   UNL     1     -43.864 -16.744 -18.841  0.00  0.00    +0.000 C 
ATOM      4  O   UNL     1     -43.054 -16.759 -17.875  0.00  0.00    +0.000 OA
ATOM      5  C   UNL     1     -45.247 -16.174 -18.761  0.00  0.00    +0.000 C 
ATOM      6  C   UNL     1     -45.808 -16.361 -20.218  0.00  0.00    +0.000 C 
ATOM      7  C   UNL     1     -44.670 -16.997 -20.956  0.00  0.00    +0.000 C 
ATOM      8  O   UNL     1     -44.685 -17.254 -22.189  0.00  0.00    +0.000 OA
ATOM      9  C   UNL     1     -46.212 -14.976 -20.802  0.00  0.00    +0.000 C 
ATOM     10  C   UNL     1     -44.983 -14.074 -20.719  0.00  0.00    +0.000 C 
ATOM     11  C   UNL     1     -44.488 -13.916 -19.479  0.00  0.00    +0.000 C 
ATOM     12  C   UNL     1     -45.249 -14.664 -18.386  0.00  0.00    +0.000 C 
ATOM     13  C   UNL     1     -46.765 -14.262 -18.410  0.00  0.00    +0.000 C 
ATOM     14  C   UNL     1     -47.139 -13.049 -19.260  0.00  0.00    +0.000 C 
ATOM     15  C   UNL     1     -47.337 -14.449 -19.844  0.00  0.00    +0.000 C 
ENDBRANCH   1   2
BRANCH   1  17
ATOM     16  O   UNL     1     -41.877 -19.537 -19.170  0.00  0.00    +0.000 OA
ATOM     17  C   UNL     1     -42.057 -19.130 -20.348  0.00  0.00    +0.000 C 
ATOM     18  N   UNL     1     -42.099 -20.090 -21.414  0.00  0.00    +0.000 N 
ATOM     19  H   UNL     1     -41.900 -21.021 -21.162  0.00  0.00    +0.000 HD
BRANCH  18  20
ATOM     20  C   UNL     1     -42.393 -19.868 -22.800  0.00  0.00    +0.000 A 
ATOM     21  C   UNL     1     -41.401 -19.326 -23.620  0.00  0.00    +0.000 A 
ATOM     22  C   UNL     1     -41.652 -19.098 -24.976  0.00  0.00    +0.000 A 
ATOM     23  C   UNL     1     -42.900 -19.406 -25.528  0.00  0.00    +0.000 A 
ATOM     24 CL   UNL     1     -43.174 -19.094 -27.234  0.00  0.00    +0.000 Cl
ATOM     25  C   UNL     1     -43.908 -19.950 -24.716  0.00  0.00    +0.000 A 
ATOM     26  C   UNL     1     -43.640 -20.184 -23.357  0.00  0.00    +0.000 A 
BRANCH  25  27
ATOM     27  N   UNL     1     -45.195 -20.245 -25.275  0.00  0.00    +0.000 N 
ATOM     28  O   UNL     1     -46.124 -19.412 -25.237  0.00  0.00    +0.000 OA
ATOM     29  O   UNL     1     -46.219 -19.328 -25.234  0.00  0.00    +0.000 OA
ENDBRANCH  25  27
ENDBRANCH  18  20
ENDBRANCH   1  17
TORSDOF 4
ENDMDL
MODEL 3
REMARK VINA RESULT:      -6.6     10.255     12.457
REMARK  Name = ZINC000408624461
REMARK  4 active torsions:
REMARK  status: ('A' for Active; 'I' for Inactive)
REMARK    1  A    between atoms: C_1  and  N_2
REMARK    2  A    between atoms: C_1  and  C_17
REMARK    3  A    between atoms: N_18  and  C_20
REMARK    4  A    between atoms: C_25  and  N_27
REMARK                            x       y       z     vdW  Elec       q    Type
REMARK                         _______ _______ _______ _____ _____    ______ ____
ROOT
ATOM      1  C   UNL     1     -45.629  -5.723 -27.705  0.00  0.00    +0.000 C 
ENDROOT
BRANCH   1   2
ATOM      2  N   UNL     1     -45.967  -5.523 -29.106  0.00  0.00    +0.000 N 
ATOM      3  C   UNL     1     -46.953  -4.641 -29.609  0.00  0.00    +0.000 C 
ATOM      4  O   UNL     1     -47.756  -4.009 -28.872  0.00  0.00    +0.000 OA
ATOM      5  C   UNL     1     -46.908  -4.506 -31.101  0.00  0.00    +0.000 C 
ATOM      6  C   UNL     1     -45.726  -5.454 -31.521  0.00  0.00    +0.000 C 
ATOM      7  C   UNL     1     -45.228  -5.999 -30.216  0.00  0.00    +0.000 C 
ATOM      8  O   UNL     1     -44.229  -6.757 -30.105  0.00  0.00    +0.000 OA
ATOM      9  C   UNL     1     -44.647  -4.634 -32.287  0.00  0.00    +0.000 C 
ATOM     10  C   UNL     1     -44.227  -3.480 -31.379  0.00  0.00    +0.000 C 
ATOM     11  C   UNL     1     -45.232  -2.669 -31.004  0.00  0.00    +0.000 C 
ATOM     12  C   UNL     1     -46.604  -3.051 -31.560  0.00  0.00    +0.000 C 
ATOM     13  C   UNL     1     -46.548  -3.143 -33.124  0.00  0.00    +0.000 C 
ATOM     14  C   UNL     1     -45.301  -2.577 -33.800  0.00  0.00    +0.000 C 
ATOM     15  C   UNL     1     -45.388  -4.084 -33.556  0.00  0.00    +0.000 C 
ENDBRANCH   1   2
BRANCH   1  17
ATOM     16  O   UNL     1     -46.680  -7.847 -27.618  0.00  0.00    +0.000 OA
ATOM     17  C   UNL     1     -46.556  -6.715 -27.080  0.00  0.00    +0.000 C 
ATOM     18  N   UNL     1     -47.300  -6.429 -25.887  0.00  0.00    +0.000 N 
ATOM     19  H   UNL     1     -47.938  -7.123 -25.602  0.00  0.00    +0.000 HD
BRANCH  18  20
ATOM     20  C   UNL     1     -47.237  -5.261 -25.057  0.00  0.00    +0.000 A 
ATOM     21  C   UNL     1     -47.480  -4.011 -25.633  0.00  0.00    +0.000 A 
ATOM     22  C   UNL     1     -47.429  -2.853 -24.853  0.00  0.00    +0.000 A 
ATOM     23  C   UNL     1     -47.129  -2.928 -23.489  0.00  0.00    +0.000 A 
ATOM     24 CL   UNL     1     -47.066  -1.446 -22.551  0.00  0.00    +0.000 Cl
ATOM     25  C   UNL     1     -46.880  -4.176 -22.897  0.00  0.00    +0.000 A 
ATOM     26  C   UNL     1     -46.945  -5.335 -23.688  0.00  0.00    +0.000 A 
BRANCH  25  27
ATOM     27  N   UNL     1     -46.550  -4.253 -21.503  0.00  0.00    +0.000 N 
ATOM     28  O   UNL     1     -47.440  -4.287 -20.628  0.00  0.00    +0.000 OA
ATOM     29  O   UNL     1     -47.530  -4.291 -20.538  0.00  0.00    +0.000 OA
ENDBRANCH  25  27
ENDBRANCH  18  20
ENDBRANCH   1  17
TORSDOF 4
ENDMDL
