MODEL 1
REMARK VINA RESULT:      -6.8      0.000      0.000
REMARK  Name = ZINC000018200764
REMARK  2 active torsions:
REMARK  status: ('A' for Active; 'I' for Inactive)
REMARK    1  A    between atoms: C_14  and  O_15
REMARK    2  A    between atoms: C_17  and  C_21
REMARK                            x       y       z     vdW  Elec       q    Type
REMARK                         _______ _______ _______ _____ _____    ______ ____
ROOT
ATOM      1  C   UNL     1     -44.176 -10.142 -30.793  0.00  0.00    +0.000 C 
ATOM      2  C   UNL     1     -45.662 -10.419 -30.964  0.00  0.00    +0.000 C 
ATOM      3  C   UNL     1     -45.841 -11.896 -31.242  0.00  0.00    +0.000 C 
ATOM      4  C   UNL     1     -46.209  -9.629 -32.154  0.00  0.00    +0.000 C 
ATOM      5  C   UNL     1     -46.454  -8.181 -31.836  0.00  0.00    +0.000 C 
ATOM      6  O   UNL     1     -46.666  -7.383 -32.788  0.00  0.00    +0.000 OA
ATOM      7  C   UNL     1     -46.473  -7.690 -30.437  0.00  0.00    +0.000 C 
ATOM      8  C   UNL     1     -46.442  -8.590 -29.411  0.00  0.00    +0.000 C 
ATOM      9  C   UNL     1     -46.419 -10.068 -29.682  0.00  0.00    +0.000 C 
ATOM     10  N   UNL     1     -46.544  -8.165 -28.039  0.00  0.00    +0.000 N 
ATOM     11  C   UNL     1     -46.706  -6.779 -27.766  0.00  0.00    +0.000 A 
ATOM     12  N   UNL     1     -46.887  -6.218 -26.557  0.00  0.00    +0.000 N 
ATOM     13  N   UNL     1     -47.017  -4.909 -26.752  0.00  0.00    +0.000 NA
ATOM     14  C   UNL     1     -46.918  -4.668 -28.078  0.00  0.00    +0.000 A 
ATOM     15  C   UNL     1     -46.724  -5.850 -28.749  0.00  0.00    +0.000 A 
ATOM     16  C   UNL     1     -46.498  -6.176 -30.193  0.00  0.00    +0.000 C 
ATOM     17  H   UNL     1     -46.504  -8.820 -27.306  0.00  0.00    +0.000 HD
ATOM     18  H   UNL     1     -46.917  -6.688 -25.692  0.00  0.00    +0.000 HD
ENDROOT
BRANCH  16  19
ATOM     19  C   UNL     1     -45.235  -5.518 -30.690  0.00  0.00    +0.000 A 
ATOM     20  C   UNL     1     -43.988  -5.942 -30.211  0.00  0.00    +0.000 A 
ATOM     21  C   UNL     1     -42.820  -5.328 -30.665  0.00  0.00    +0.000 A 
ATOM     22  N   UNL     1     -42.888  -4.315 -31.569  0.00  0.00    +0.000 NA
ATOM     23  C   UNL     1     -44.077  -3.871 -32.055  0.00  0.00    +0.000 A 
ATOM     24  C   UNL     1     -44.103  -2.825 -32.981  0.00  0.00    +0.000 A 
ATOM     25  C   UNL     1     -45.324  -2.363 -33.482  0.00  0.00    +0.000 A 
ATOM     26  C   UNL     1     -46.522  -2.944 -33.059  0.00  0.00    +0.000 A 
ATOM     27  C   UNL     1     -46.504  -3.992 -32.133  0.00  0.00    +0.000 A 
ATOM     28  C   UNL     1     -45.287  -4.465 -31.623  0.00  0.00    +0.000 A 
ENDBRANCH  16  19
BRANCH  14  29
ATOM     29  O   UNL     1     -46.995  -3.405 -28.649  0.00  0.00    +0.000 OA
ATOM     30  H   UNL     1     -47.524  -3.266 -29.410  0.00  0.00    +0.000 HD
ENDBRANCH  14  29
TORSDOF 2
ENDMDL
MODEL 2
REMARK VINA RESULT:      -6.7      2.416      6.196
REMARK  Name = ZINC000018200764
REMARK  2 active torsions:
REMARK  status: ('A' for Active; 'I' for Inactive)
REMARK    1  A    between atoms: C_14  and  O_15
REMARK    2  A    between atoms: C_17  and  C_21
REMARK                            x       y       z     vdW  Elec       q    Type
REMARK                         _______ _______ _______ _____ _____    ______ ____
ROOT
ATOM      1  C   UNL     1     -42.858  -2.418 -32.537  0.00  0.00    +0.000 C 
ATOM      2  C   UNL     1     -44.226  -1.794 -32.765  0.00  0.00    +0.000 C 
ATOM      3  C   UNL     1     -44.032  -0.459 -33.450  0.00  0.00    +0.000 C 
ATOM      4  C   UNL     1     -44.924  -1.557 -31.425  0.00  0.00    +0.000 C 
ATOM      5  C   UNL     1     -45.524  -2.806 -30.844  0.00  0.00    +0.000 C 
ATOM      6  O   UNL     1     -45.903  -2.790 -29.642  0.00  0.00    +0.000 OA
ATOM      7  C   UNL     1     -45.694  -4.033 -31.660  0.00  0.00    +0.000 C 
ATOM      8  C   UNL     1     -45.465  -3.979 -33.005  0.00  0.00    +0.000 C 
ATOM      9  C   UNL     1     -45.075  -2.689 -33.670  0.00  0.00    +0.000 C 
ATOM     10  N   UNL     1     -45.699  -5.121 -33.849  0.00  0.00    +0.000 N 
ATOM     11  C   UNL     1     -46.201  -6.313 -33.259  0.00  0.00    +0.000 A 
ATOM     12  N   UNL     1     -46.541  -7.444 -33.905  0.00  0.00    +0.000 N 
ATOM     13  N   UNL     1     -46.984  -8.297 -32.986  0.00  0.00    +0.000 NA
ATOM     14  C   UNL     1     -46.918  -7.691 -31.780  0.00  0.00    +0.000 A 
ATOM     15  C   UNL     1     -46.425  -6.418 -31.929  0.00  0.00    +0.000 A 
ATOM     16  C   UNL     1     -46.094  -5.333 -30.951  0.00  0.00    +0.000 C 
ATOM     17  H   UNL     1     -45.516  -5.078 -34.815  0.00  0.00    +0.000 HD
ATOM     18  H   UNL     1     -46.475  -7.607 -34.873  0.00  0.00    +0.000 HD
ENDROOT
BRANCH  16  19
ATOM     19  C   UNL     1     -45.020  -5.793 -29.997  0.00  0.00    +0.000 A 
ATOM     20  C   UNL     1     -43.712  -5.997 -30.459  0.00  0.00    +0.000 A 
ATOM     21  C   UNL     1     -42.721  -6.431 -29.578  0.00  0.00    +0.000 A 
ATOM     22  N   UNL     1     -43.020  -6.660 -28.273  0.00  0.00    +0.000 NA
ATOM     23  C   UNL     1     -44.276  -6.478 -27.786  0.00  0.00    +0.000 A 
ATOM     24  C   UNL     1     -44.543  -6.728 -26.437  0.00  0.00    +0.000 A 
ATOM     25  C   UNL     1     -45.833  -6.546 -25.932  0.00  0.00    +0.000 A 
ATOM     26  C   UNL     1     -46.862  -6.114 -26.773  0.00  0.00    +0.000 A 
ATOM     27  C   UNL     1     -46.603  -5.861 -28.123  0.00  0.00    +0.000 A 
ATOM     28  C   UNL     1     -45.313  -6.039 -28.643  0.00  0.00    +0.000 A 
ENDBRANCH  16  19
BRANCH  14  29
ATOM     29  O   UNL     1     -47.289  -8.290 -30.584  0.00  0.00    +0.000 OA
ATOM     30  H   UNL     1     -48.038  -7.977 -30.116  0.00  0.00    +0.000 HD
ENDBRANCH  14  29
TORSDOF 2
ENDMDL
MODEL 3
REMARK VINA RESULT:      -6.6     10.709     13.916
REMARK  Name = ZINC000018200764
REMARK  2 active torsions:
REMARK  status: ('A' for Active; 'I' for Inactive)
REMARK    1  A    between atoms: C_14  and  O_15
REMARK    2  A    between atoms: C_17  and  C_21
REMARK                            x       y       z     vdW  Elec       q    Type
REMARK                         _______ _______ _______ _____ _____    ______ ____
ROOT
ATOM      1  C   UNL     1     -43.595 -14.229 -25.942  0.00  0.00    +0.000 C 
ATOM      2  C   UNL     1     -44.851 -14.945 -26.414  0.00  0.00    +0.000 C 
ATOM      3  C   UNL     1     -45.197 -14.435 -27.796  0.00  0.00    +0.000 C 
ATOM      4  C   UNL     1     -46.017 -14.632 -25.474  0.00  0.00    +0.000 C 
ATOM      5  C   UNL     1     -45.972 -15.425 -24.198  0.00  0.00    +0.000 C 
ATOM      6  O   UNL     1     -46.727 -15.082 -23.249  0.00  0.00    +0.000 OA
ATOM      7  C   UNL     1     -45.082 -16.602 -24.050  0.00  0.00    +0.000 C 
ATOM      8  C   UNL     1     -44.420 -17.082 -25.143  0.00  0.00    +0.000 C 
ATOM      9  C   UNL     1     -44.607 -16.452 -26.496  0.00  0.00    +0.000 C 
ATOM     10  N   UNL     1     -43.613 -18.271 -25.066  0.00  0.00    +0.000 N 
ATOM     11  C   UNL     1     -43.534 -18.961 -23.826  0.00  0.00    +0.000 A 
ATOM     12  N   UNL     1     -42.889 -20.119 -23.595  0.00  0.00    +0.000 N 
ATOM     13  N   UNL     1     -43.086 -20.425 -22.316  0.00  0.00    +0.000 NA
ATOM     14  C   UNL     1     -43.854 -19.458 -21.765  0.00  0.00    +0.000 A 
ATOM     15  C   UNL     1     -44.158 -18.513 -22.713  0.00  0.00    +0.000 A 
ATOM     16  C   UNL     1     -44.914 -17.221 -22.658  0.00  0.00    +0.000 C 
ATOM     17  H   UNL     1     -43.126 -18.600 -25.856  0.00  0.00    +0.000 HD
ATOM     18  H   UNL     1     -42.368 -20.640 -24.249  0.00  0.00    +0.000 HD
ENDROOT
BRANCH  16  19
ATOM     19  C   UNL     1     -44.248 -16.261 -21.704  0.00  0.00    +0.000 A 
ATOM     20  C   UNL     1     -43.011 -15.691 -22.034  0.00  0.00    +0.000 A 
ATOM     21  C   UNL     1     -42.391 -14.809 -21.148  0.00  0.00    +0.000 A 
ATOM     22  N   UNL     1     -42.982 -14.504 -19.963  0.00  0.00    +0.000 NA
ATOM     23  C   UNL     1     -44.179 -15.038 -19.604  0.00  0.00    +0.000 A 
ATOM     24  C   UNL     1     -44.751 -14.700 -18.374  0.00  0.00    +0.000 A 
ATOM     25  C   UNL     1     -45.980 -15.249 -17.999  0.00  0.00    +0.000 A 
ATOM     26  C   UNL     1     -46.642 -16.139 -18.850  0.00  0.00    +0.000 A 
ATOM     27  C   UNL     1     -46.077 -16.481 -20.082  0.00  0.00    +0.000 A 
ATOM     28  C   UNL     1     -44.844 -15.937 -20.471  0.00  0.00    +0.000 A 
ENDBRANCH  16  19
BRANCH  14  29
ATOM     29  O   UNL     1     -44.252 -19.442 -20.435  0.00  0.00    +0.000 OA
ATOM     30  H   UNL     1     -43.650 -19.693 -19.762  0.00  0.00    +0.000 HD
ENDBRANCH  14  29
TORSDOF 2
ENDMDL
