MODEL 1
REMARK VINA RESULT:      -6.2      0.000      0.000
REMARK  Name = ZINC000230157758 PubChem-100900615
REMARK  9 active torsions:
REMARK  status: ('A' for Active; 'I' for Inactive)
REMARK    1  A    between atoms: N_13  and  C_20
REMARK    2  A    between atoms: C_20  and  C_21
REMARK    3  A    between atoms: C_21  and  O_22
REMARK    4  A    between atoms: C_21  and  C_24
REMARK    5  A    between atoms: C_24  and  O_25
REMARK    6  A    between atoms: C_24  and  C_27
REMARK    7  A    between atoms: C_27  and  O_28
REMARK    8  A    between atoms: C_27  and  C_30
REMARK    9  A    between atoms: C_30  and  O_31
REMARK                            x       y       z     vdW  Elec       q    Type
REMARK                         _______ _______ _______ _____ _____    ______ ____
ROOT
ATOM      1  C   UNL     1     -46.152 -19.291 -19.221  0.00  0.00    +0.000 C 
ATOM      2  C   UNL     1     -45.861 -18.365 -20.352  0.00  0.00    +0.000 A 
ATOM      3  C   UNL     1     -45.507 -18.909 -21.591  0.00  0.00    +0.000 A 
ATOM      4  C   UNL     1     -45.228 -18.071 -22.672  0.00  0.00    +0.000 A 
ATOM      5  C   UNL     1     -44.875 -18.603 -23.910  0.00  0.00    +0.000 A 
ATOM      6  C   UNL     1     -44.598 -17.745 -24.982  0.00  0.00    +0.000 A 
ATOM      7  C   UNL     1     -44.682 -16.349 -24.794  0.00  0.00    +0.000 A 
ATOM      8  N   UNL     1     -45.027 -15.856 -23.569  0.00  0.00    +0.000 NA
ATOM      9  C   UNL     1     -45.300 -16.672 -22.516  0.00  0.00    +0.000 A 
ATOM     10  C   UNL     1     -45.652 -16.128 -21.279  0.00  0.00    +0.000 A 
ATOM     11  C   UNL     1     -45.934 -16.967 -20.195  0.00  0.00    +0.000 A 
ATOM     12  C   UNL     1     -46.306 -16.347 -18.891  0.00  0.00    +0.000 C 
ATOM     13  N   UNL     1     -44.416 -15.504 -25.836  0.00  0.00    +0.000 N 
ATOM     14  C   UNL     1     -44.062 -16.011 -27.058  0.00  0.00    +0.000 A 
ATOM     15  O   UNL     1     -43.808 -15.241 -28.024  0.00  0.00    +0.000 OA
ATOM     16  N   UNL     1     -43.979 -17.354 -27.246  0.00  0.00    +0.000 N 
ATOM     17  C   UNL     1     -44.238 -18.229 -26.242  0.00  0.00    +0.000 A 
ATOM     18  O   UNL     1     -44.151 -19.467 -26.460  0.00  0.00    +0.000 OA
ATOM     19  H   UNL     1     -43.725 -17.701 -28.131  0.00  0.00    +0.000 HD
ENDROOT
BRANCH  13  20
ATOM     20  C   UNL     1     -44.514 -14.055 -25.649  0.00  0.00    +0.000 C 
BRANCH  20  21
ATOM     21  C   UNL     1     -45.950 -13.585 -25.845  0.00  0.00    +0.000 C 
BRANCH  21  22
ATOM     22  O   UNL     1     -46.572 -13.470 -24.600  0.00  0.00    +0.000 OA
ATOM     23  H   UNL     1     -47.239 -12.768 -24.636  0.00  0.00    +0.000 HD
ENDBRANCH  21  22
BRANCH  21  24
ATOM     24  C   UNL     1     -45.984 -12.237 -26.576  0.00  0.00    +0.000 C 
BRANCH  24  25
ATOM     25  O   UNL     1     -47.223 -11.618 -26.394  0.00  0.00    +0.000 OA
ATOM     26  H   UNL     1     -47.087 -10.699 -26.113  0.00  0.00    +0.000 HD
ENDBRANCH  24  25
BRANCH  24  27
ATOM     27  C   UNL     1     -45.681 -12.345 -28.077  0.00  0.00    +0.000 C 
BRANCH  27  28
ATOM     28  O   UNL     1     -46.236 -13.510 -28.605  0.00  0.00    +0.000 OA
ATOM     29  H   UNL     1     -45.744 -13.773 -29.399  0.00  0.00    +0.000 HD
ENDBRANCH  27  28
BRANCH  27  30
ATOM     30  C   UNL     1     -46.159 -11.138 -28.877  0.00  0.00    +0.000 C 
BRANCH  30  31
ATOM     31  O   UNL     1     -47.416 -11.392 -29.427  0.00  0.00    +0.000 OA
ATOM     32  H   UNL     1     -47.607 -10.736 -30.115  0.00  0.00    +0.000 HD
ENDBRANCH  30  31
ENDBRANCH  27  30
ENDBRANCH  24  27
ENDBRANCH  21  24
ENDBRANCH  20  21
ENDBRANCH  13  20
TORSDOF 9
ENDMDL
MODEL 2
REMARK VINA RESULT:      -5.6     10.087     13.226
REMARK  Name = ZINC000230157758 PubChem-100900615
REMARK  9 active torsions:
REMARK  status: ('A' for Active; 'I' for Inactive)
REMARK    1  A    between atoms: N_13  and  C_20
REMARK    2  A    between atoms: C_20  and  C_21
REMARK    3  A    between atoms: C_21  and  O_22
REMARK    4  A    between atoms: C_21  and  C_24
REMARK    5  A    between atoms: C_24  and  O_25
REMARK    6  A    between atoms: C_24  and  C_27
REMARK    7  A    between atoms: C_27  and  O_28
REMARK    8  A    between atoms: C_27  and  C_30
REMARK    9  A    between atoms: C_30  and  O_31
REMARK                            x       y       z     vdW  Elec       q    Type
REMARK                         _______ _______ _______ _____ _____    ______ ____
ROOT
ATOM      1  C   UNL     1     -45.351 -11.866 -35.073  0.00  0.00    +0.000 C 
ATOM      2  C   UNL     1     -45.685 -10.527 -34.509  0.00  0.00    +0.000 A 
ATOM      3  C   UNL     1     -45.947 -10.422 -33.139  0.00  0.00    +0.000 A 
ATOM      4  C   UNL     1     -46.263  -9.184 -32.577  0.00  0.00    +0.000 A 
ATOM      5  C   UNL     1     -46.525  -9.069 -31.214  0.00  0.00    +0.000 A 
ATOM      6  C   UNL     1     -46.841  -7.818 -30.670  0.00  0.00    +0.000 A 
ATOM      7  C   UNL     1     -46.888  -6.686 -31.512  0.00  0.00    +0.000 A 
ATOM      8  N   UNL     1     -46.630  -6.830 -32.844  0.00  0.00    +0.000 NA
ATOM      9  C   UNL     1     -46.321  -8.035 -33.391  0.00  0.00    +0.000 A 
ATOM     10  C   UNL     1     -46.061  -8.139 -34.760  0.00  0.00    +0.000 A 
ATOM     11  C   UNL     1     -45.743  -9.380 -35.324  0.00  0.00    +0.000 A 
ATOM     12  C   UNL     1     -45.472  -9.449 -36.789  0.00  0.00    +0.000 C 
ATOM     13  N   UNL     1     -47.193  -5.460 -30.988  0.00  0.00    +0.000 N 
ATOM     14  C   UNL     1     -47.458  -5.331 -29.651  0.00  0.00    +0.000 A 
ATOM     15  O   UNL     1     -47.747  -4.206 -29.159  0.00  0.00    +0.000 OA
ATOM     16  N   UNL     1     -47.415  -6.416 -28.835  0.00  0.00    +0.000 N 
ATOM     17  C   UNL     1     -47.113  -7.651 -29.310  0.00  0.00    +0.000 A 
ATOM     18  O   UNL     1     -47.082  -8.631 -28.518  0.00  0.00    +0.000 OA
ATOM     19  H   UNL     1     -47.607  -6.305 -27.876  0.00  0.00    +0.000 HD
ENDROOT
BRANCH  13  20
ATOM     20  C   UNL     1     -47.231  -4.281 -31.855  0.00  0.00    +0.000 C 
BRANCH  20  21
ATOM     21  C   UNL     1     -45.942  -3.478 -31.726  0.00  0.00    +0.000 C 
BRANCH  21  22
ATOM     22  O   UNL     1     -44.849  -4.326 -31.924  0.00  0.00    +0.000 OA
ATOM     23  H   UNL     1     -44.928  -5.096 -31.341  0.00  0.00    +0.000 HD
ENDBRANCH  21  22
BRANCH  21  24
ATOM     24  C   UNL     1     -45.911  -2.334 -32.747  0.00  0.00    +0.000 C 
BRANCH  24  25
ATOM     25  O   UNL     1     -46.543  -2.723 -33.931  0.00  0.00    +0.000 OA
ATOM     26  H   UNL     1     -47.486  -2.502 -33.882  0.00  0.00    +0.000 HD
ENDBRANCH  24  25
BRANCH  24  27
ATOM     27  C   UNL     1     -44.496  -1.831 -33.063  0.00  0.00    +0.000 C 
BRANCH  27  28
ATOM     28  O   UNL     1     -44.303  -1.753 -34.442  0.00  0.00    +0.000 OA
ATOM     29  H   UNL     1     -45.160  -1.807 -34.893  0.00  0.00    +0.000 HD
ENDBRANCH  27  28
BRANCH  27  30
ATOM     30  C   UNL     1     -44.176  -0.485 -32.421  0.00  0.00    +0.000 C 
BRANCH  30  31
ATOM     31  O   UNL     1     -42.871  -0.485 -31.929  0.00  0.00    +0.000 OA
ATOM     32  H   UNL     1     -42.888  -0.373 -30.966  0.00  0.00    +0.000 HD
ENDBRANCH  30  31
ENDBRANCH  27  30
ENDBRANCH  24  27
ENDBRANCH  21  24
ENDBRANCH  20  21
ENDBRANCH  13  20
TORSDOF 9
ENDMDL
MODEL 3
REMARK VINA RESULT:      -5.6      3.952      5.278
REMARK  Name = ZINC000230157758 PubChem-100900615
REMARK  9 active torsions:
REMARK  status: ('A' for Active; 'I' for Inactive)
REMARK    1  A    between atoms: N_13  and  C_20
REMARK    2  A    between atoms: C_20  and  C_21
REMARK    3  A    between atoms: C_21  and  O_22
REMARK    4  A    between atoms: C_21  and  C_24
REMARK    5  A    between atoms: C_24  and  O_25
REMARK    6  A    between atoms: C_24  and  C_27
REMARK    7  A    between atoms: C_27  and  O_28
REMARK    8  A    between atoms: C_27  and  C_30
REMARK    9  A    between atoms: C_30  and  O_31
REMARK                            x       y       z     vdW  Elec       q    Type
REMARK                         _______ _______ _______ _____ _____    ______ ____
ROOT
ATOM      1  C   UNL     1     -46.596 -17.202 -19.261  0.00  0.00    +0.000 C 
ATOM      2  C   UNL     1     -45.714 -17.360 -20.453  0.00  0.00    +0.000 A 
ATOM      3  C   UNL     1     -45.040 -18.573 -20.633  0.00  0.00    +0.000 A 
ATOM      4  C   UNL     1     -44.206 -18.754 -21.738  0.00  0.00    +0.000 A 
ATOM      5  C   UNL     1     -43.532 -19.958 -21.927  0.00  0.00    +0.000 A 
ATOM      6  C   UNL     1     -42.699 -20.120 -23.042  0.00  0.00    +0.000 A 
ATOM      7  C   UNL     1     -42.556 -19.060 -23.963  0.00  0.00    +0.000 A 
ATOM      8  N   UNL     1     -43.228 -17.891 -23.750  0.00  0.00    +0.000 NA
ATOM      9  C   UNL     1     -44.040 -17.714 -22.675  0.00  0.00    +0.000 A 
ATOM     10  C   UNL     1     -44.712 -16.503 -22.494  0.00  0.00    +0.000 A 
ATOM     11  C   UNL     1     -45.549 -16.319 -21.387  0.00  0.00    +0.000 A 
ATOM     12  C   UNL     1     -46.248 -15.012 -21.230  0.00  0.00    +0.000 C 
ATOM     13  N   UNL     1     -41.748 -19.211 -25.055  0.00  0.00    +0.000 N 
ATOM     14  C   UNL     1     -41.073 -20.386 -25.253  0.00  0.00    +0.000 A 
ATOM     15  O   UNL     1     -40.319 -20.534 -26.254  0.00  0.00    +0.000 OA
ATOM     16  N   UNL     1     -41.206 -21.411 -24.371  0.00  0.00    +0.000 N 
ATOM     17  C   UNL     1     -42.000 -21.307 -23.276  0.00  0.00    +0.000 A 
ATOM     18  O   UNL     1     -42.096 -22.282 -22.483  0.00  0.00    +0.000 OA
ATOM     19  H   UNL     1     -40.714 -22.248 -24.529  0.00  0.00    +0.000 HD
ENDROOT
BRANCH  13  20
ATOM     20  C   UNL     1     -41.606 -18.119 -26.020  0.00  0.00    +0.000 C 
BRANCH  20  21
ATOM     21  C   UNL     1     -42.523 -18.338 -27.218  0.00  0.00    +0.000 C 
BRANCH  21  22
ATOM     22  O   UNL     1     -43.709 -17.626 -27.027  0.00  0.00    +0.000 OA
ATOM     23  H   UNL     1     -44.446 -18.116 -27.422  0.00  0.00    +0.000 HD
ENDBRANCH  21  22
BRANCH  21  24
ATOM     24  C   UNL     1     -41.839 -17.884 -28.513  0.00  0.00    +0.000 C 
BRANCH  24  25
ATOM     25  O   UNL     1     -42.727 -17.143 -29.297  0.00  0.00    +0.000 OA
ATOM     26  H   UNL     1     -42.238 -16.693 -30.003  0.00  0.00    +0.000 HD
ENDBRANCH  24  25
BRANCH  24  27
ATOM     27  C   UNL     1     -41.266 -19.041 -29.344  0.00  0.00    +0.000 C 
BRANCH  27  28
ATOM     28  O   UNL     1     -41.563 -20.265 -28.745  0.00  0.00    +0.000 OA
ATOM     29  H   UNL     1     -41.214 -20.276 -27.839  0.00  0.00    +0.000 HD
ENDBRANCH  27  28
BRANCH  27  30
ATOM     30  C   UNL     1     -41.752 -19.045 -30.789  0.00  0.00    +0.000 C 
BRANCH  30  31
ATOM     31  O   UNL     1     -43.105 -19.375 -30.842  0.00  0.00    +0.000 OA
ATOM     32  H   UNL     1     -43.452 -19.466 -29.941  0.00  0.00    +0.000 HD
ENDBRANCH  30  31
ENDBRANCH  27  30
ENDBRANCH  24  27
ENDBRANCH  21  24
ENDBRANCH  20  21
ENDBRANCH  13  20
TORSDOF 9
ENDMDL
