MODEL 1
REMARK VINA RESULT:      -6.4      0.000      0.000
REMARK  Name = ZINC000018195610 ZINC18195610
REMARK  2 active torsions:
REMARK  status: ('A' for Active; 'I' for Inactive)
REMARK    1  A    between atoms: C_6  and  C_21
REMARK    2  A    between atoms: C_11  and  O_12
REMARK                            x       y       z     vdW  Elec       q    Type
REMARK                         _______ _______ _______ _____ _____    ______ ____
ROOT
ATOM      1  C   UNL     1     -45.318  -7.321 -30.797  0.00  0.00    +0.000 C 
ATOM      2  C   UNL     1     -46.601  -6.848 -31.464  0.00  0.00    +0.000 C 
ATOM      3  C   UNL     1     -46.941  -5.426 -31.012  0.00  0.00    +0.000 C 
ATOM      4  C   UNL     1     -46.033  -4.372 -31.590  0.00  0.00    +0.000 C 
ATOM      5  C   UNL     1     -45.362  -4.572 -32.765  0.00  0.00    +0.000 C 
ATOM      6  C   UNL     1     -44.392  -3.530 -33.336  0.00  0.00    +0.000 C 
ATOM      7  C   UNL     1     -44.505  -2.219 -32.622  0.00  0.00    +0.000 A 
ATOM      8  C   UNL     1     -45.202  -2.059 -31.472  0.00  0.00    +0.000 A 
ATOM      9  N   UNL     1     -45.090  -0.804 -31.001  0.00  0.00    +0.000 N 
ATOM     10  N   UNL     1     -44.306  -0.140 -31.848  0.00  0.00    +0.000 NA
ATOM     11  C   UNL     1     -43.939  -0.987 -32.834  0.00  0.00    +0.000 A 
ATOM     12  N   UNL     1     -45.960  -3.113 -30.896  0.00  0.00    +0.000 N 
ATOM     13  C   UNL     1     -45.546  -5.844 -33.504  0.00  0.00    +0.000 C 
ATOM     14  O   UNL     1     -44.966  -6.030 -34.607  0.00  0.00    +0.000 OA
ATOM     15  C   UNL     1     -46.465  -6.908 -32.984  0.00  0.00    +0.000 C 
ATOM     16  C   UNL     1     -47.723  -7.771 -31.043  0.00  0.00    +0.000 C 
ATOM     17  H   UNL     1     -45.510  -0.444 -30.187  0.00  0.00    +0.000 HD
ATOM     18  H   UNL     1     -46.425  -2.985 -30.038  0.00  0.00    +0.000 HD
ENDROOT
BRANCH   6  19
ATOM     19  C   UNL     1     -42.975  -4.026 -33.295  0.00  0.00    +0.000 A 
ATOM     20  C   UNL     1     -42.418  -4.556 -32.123  0.00  0.00    +0.000 A 
ATOM     21  C   UNL     1     -41.094  -5.000 -32.119  0.00  0.00    +0.000 A 
ATOM     22  C   UNL     1     -40.341  -4.904 -33.291  0.00  0.00    +0.000 A 
ATOM     23  N   UNL     1     -40.896  -4.384 -34.419  0.00  0.00    +0.000 NA
ATOM     24  C   UNL     1     -42.184  -3.947 -34.443  0.00  0.00    +0.000 A 
ENDBRANCH   6  19
BRANCH  11  25
ATOM     25  O   UNL     1     -43.104  -0.641 -33.889  0.00  0.00    +0.000 OA
ATOM     26  H   UNL     1     -43.436  -0.128 -34.600  0.00  0.00    +0.000 HD
ENDBRANCH  11  25
TORSDOF 2
ENDMDL
MODEL 2
REMARK VINA RESULT:      -5.9      2.357      3.889
REMARK  Name = ZINC000018195610 ZINC18195610
REMARK  2 active torsions:
REMARK  status: ('A' for Active; 'I' for Inactive)
REMARK    1  A    between atoms: C_6  and  C_21
REMARK    2  A    between atoms: C_11  and  O_12
REMARK                            x       y       z     vdW  Elec       q    Type
REMARK                         _______ _______ _______ _____ _____    ______ ____
ROOT
ATOM      1  C   UNL     1     -44.472  -8.090 -30.088  0.00  0.00    +0.000 C 
ATOM      2  C   UNL     1     -44.356  -7.035 -28.999  0.00  0.00    +0.000 C 
ATOM      3  C   UNL     1     -43.164  -6.116 -29.273  0.00  0.00    +0.000 C 
ATOM      4  C   UNL     1     -43.382  -5.169 -30.426  0.00  0.00    +0.000 C 
ATOM      5  C   UNL     1     -44.637  -4.792 -30.814  0.00  0.00    +0.000 C 
ATOM      6  C   UNL     1     -44.875  -3.874 -32.020  0.00  0.00    +0.000 C 
ATOM      7  C   UNL     1     -43.602  -3.246 -32.496  0.00  0.00    +0.000 A 
ATOM      8  C   UNL     1     -42.379  -3.633 -32.066  0.00  0.00    +0.000 A 
ATOM      9  N   UNL     1     -41.400  -2.959 -32.697  0.00  0.00    +0.000 N 
ATOM     10  N   UNL     1     -41.991  -2.130 -33.554  0.00  0.00    +0.000 NA
ATOM     11  C   UNL     1     -43.327  -2.296 -33.447  0.00  0.00    +0.000 A 
ATOM     12  N   UNL     1     -42.210  -4.614 -31.052  0.00  0.00    +0.000 N 
ATOM     13  C   UNL     1     -45.816  -5.305 -30.075  0.00  0.00    +0.000 C 
ATOM     14  O   UNL     1     -46.978  -4.939 -30.396  0.00  0.00    +0.000 OA
ATOM     15  C   UNL     1     -45.647  -6.224 -28.903  0.00  0.00    +0.000 C 
ATOM     16  C   UNL     1     -44.129  -7.738 -27.678  0.00  0.00    +0.000 C 
ATOM     17  H   UNL     1     -40.432  -3.060 -32.552  0.00  0.00    +0.000 HD
ATOM     18  H   UNL     1     -41.310  -4.909 -30.783  0.00  0.00    +0.000 HD
ENDROOT
BRANCH   6  19
ATOM     19  C   UNL     1     -45.546  -4.612 -33.142  0.00  0.00    +0.000 A 
ATOM     20  C   UNL     1     -45.003  -5.790 -33.672  0.00  0.00    +0.000 A 
ATOM     21  C   UNL     1     -45.650  -6.444 -34.722  0.00  0.00    +0.000 A 
ATOM     22  C   UNL     1     -46.834  -5.908 -35.232  0.00  0.00    +0.000 A 
ATOM     23  N   UNL     1     -47.346  -4.762 -34.708  0.00  0.00    +0.000 NA
ATOM     24  C   UNL     1     -46.731  -4.109 -33.685  0.00  0.00    +0.000 A 
ENDBRANCH   6  19
BRANCH  11  25
ATOM     25  O   UNL     1     -44.262  -1.603 -34.206  0.00  0.00    +0.000 OA
ATOM     26  H   UNL     1     -45.128  -1.469 -33.874  0.00  0.00    +0.000 HD
ENDBRANCH  11  25
TORSDOF 2
ENDMDL
MODEL 3
REMARK VINA RESULT:      -5.9     14.581     17.036
REMARK  Name = ZINC000018195610 ZINC18195610
REMARK  2 active torsions:
REMARK  status: ('A' for Active; 'I' for Inactive)
REMARK    1  A    between atoms: C_6  and  C_21
REMARK    2  A    between atoms: C_11  and  O_12
REMARK                            x       y       z     vdW  Elec       q    Type
REMARK                         _______ _______ _______ _____ _____    ______ ____
ROOT
ATOM      1  C   UNL     1     -44.055 -16.257 -19.175  0.00  0.00    +0.000 C 
ATOM      2  C   UNL     1     -45.562 -16.189 -19.371  0.00  0.00    +0.000 C 
ATOM      3  C   UNL     1     -45.897 -15.369 -20.619  0.00  0.00    +0.000 C 
ATOM      4  C   UNL     1     -45.574 -16.074 -21.912  0.00  0.00    +0.000 C 
ATOM      5  C   UNL     1     -45.513 -17.437 -21.987  0.00  0.00    +0.000 C 
ATOM      6  C   UNL     1     -45.130 -18.166 -23.282  0.00  0.00    +0.000 C 
ATOM      7  C   UNL     1     -45.127 -17.238 -24.457  0.00  0.00    +0.000 A 
ATOM      8  C   UNL     1     -45.215 -15.892 -24.339  0.00  0.00    +0.000 A 
ATOM      9  N   UNL     1     -45.122 -15.287 -25.537  0.00  0.00    +0.000 N 
ATOM     10  N   UNL     1     -44.963 -16.247 -26.445  0.00  0.00    +0.000 NA
ATOM     11  C   UNL     1     -44.959 -17.436 -25.804  0.00  0.00    +0.000 A 
ATOM     12  N   UNL     1     -45.410 -15.255 -23.084  0.00  0.00    +0.000 N 
ATOM     13  C   UNL     1     -45.792 -18.249 -20.778  0.00  0.00    +0.000 C 
ATOM     14  O   UNL     1     -45.777 -19.508 -20.838  0.00  0.00    +0.000 OA
ATOM     15  C   UNL     1     -46.150 -17.594 -19.479  0.00  0.00    +0.000 C 
ATOM     16  C   UNL     1     -46.167 -15.502 -18.166  0.00  0.00    +0.000 C 
ATOM     17  H   UNL     1     -45.165 -14.319 -25.710  0.00  0.00    +0.000 HD
ATOM     18  H   UNL     1     -45.430 -14.274 -23.018  0.00  0.00    +0.000 HD
ENDROOT
BRANCH   6  19
ATOM     19  C   UNL     1     -43.799 -18.847 -23.150  0.00  0.00    +0.000 A 
ATOM     20  C   UNL     1     -43.631 -20.197 -23.484  0.00  0.00    +0.000 A 
ATOM     21  C   UNL     1     -42.380 -20.801 -23.341  0.00  0.00    +0.000 A 
ATOM     22  C   UNL     1     -41.311 -20.043 -22.859  0.00  0.00    +0.000 A 
ATOM     23  N   UNL     1     -41.492 -18.734 -22.535  0.00  0.00    +0.000 NA
ATOM     24  C   UNL     1     -42.702 -18.128 -22.668  0.00  0.00    +0.000 A 
ENDBRANCH   6  19
BRANCH  11  25
ATOM     25  O   UNL     1     -44.797 -18.663 -26.437  0.00  0.00    +0.000 OA
ATOM     26  H   UNL     1     -45.037 -18.761 -27.337  0.00  0.00    +0.000 HD
ENDBRANCH  11  25
TORSDOF 2
ENDMDL
