MODEL 1
REMARK VINA RESULT:      -7.0      0.000      0.000
REMARK  Name = ZINC000031809732
REMARK  3 active torsions:
REMARK  status: ('A' for Active; 'I' for Inactive)
REMARK    1  A    between atoms: C_1  and  C_26
REMARK    2  A    between atoms: C_24  and  O_33
REMARK    3  A    between atoms: C_29  and  O_30
REMARK                            x       y       z     vdW  Elec       q    Type
REMARK                         _______ _______ _______ _____ _____    ______ ____
ROOT
ATOM      1  C   UNL     1     -45.651 -15.939 -19.928  0.00  0.00    +0.000 C 
ATOM      2  S   UNL     1     -47.022 -15.112 -19.074  0.00  0.00    +0.000 S 
ATOM      3  C   UNL     1     -46.063 -13.587 -19.059  0.00  0.00    +0.000 C 
ATOM      4  C   UNL     1     -46.464 -12.758 -20.219  0.00  0.00    +0.000 C 
ATOM      5  O   UNL     1     -46.929 -11.608 -20.004  0.00  0.00    +0.000 OA
ATOM      6  N   UNL     1     -46.333 -13.209 -21.571  0.00  0.00    +0.000 N 
ATOM      7  C   UNL     1     -45.879 -14.468 -22.098  0.00  0.00    +0.000 A 
ATOM      8  C   UNL     1     -45.652 -15.675 -21.424  0.00  0.00    +0.000 A 
ATOM      9  C   UNL     1     -45.294 -16.551 -22.455  0.00  0.00    +0.000 A 
ATOM     10  C   UNL     1     -44.847 -17.966 -22.335  0.00  0.00    +0.000 C 
ATOM     11  N   UNL     1     -45.349 -15.923 -23.642  0.00  0.00    +0.000 NA
ATOM     12  N   UNL     1     -45.696 -14.668 -23.421  0.00  0.00    +0.000 N 
ATOM     13  H   UNL     1     -46.596 -12.549 -22.253  0.00  0.00    +0.000 HD
ATOM     14  C   UNL     1     -45.868 -13.718 -24.483  0.00  0.00    +0.000 A 
ATOM     15  N   UNL     1     -46.362 -14.124 -25.691  0.00  0.00    +0.000 NA
ATOM     16  C   UNL     1     -46.511 -13.248 -26.736  0.00  0.00    +0.000 A 
ATOM     17  N   UNL     1     -46.151 -11.937 -26.598  0.00  0.00    +0.000 NA
ATOM     18  C   UNL     1     -45.648 -11.535 -25.407  0.00  0.00    +0.000 A 
ATOM     19  N   UNL     1     -45.189 -10.315 -25.104  0.00  0.00    +0.000 N 
ATOM     20  C   UNL     1     -44.749 -10.475 -23.826  0.00  0.00    +0.000 A 
ATOM     21  N   UNL     1     -44.912 -11.738 -23.341  0.00  0.00    +0.000 NA
ATOM     22  C   UNL     1     -45.494 -12.379 -24.364  0.00  0.00    +0.000 A 
ATOM     23  H   UNL     1     -45.176  -9.506 -25.663  0.00  0.00    +0.000 HD
ENDROOT
BRANCH   1  26
ATOM     24  C   UNL     1     -44.453 -19.335 -18.658  0.00  0.00    +0.000 A 
ATOM     25  C   UNL     1     -44.461 -17.978 -19.020  0.00  0.00    +0.000 A 
ATOM     26  C   UNL     1     -45.624 -17.386 -19.537  0.00  0.00    +0.000 A 
ATOM     27  C   UNL     1     -46.778 -18.157 -19.698  0.00  0.00    +0.000 A 
ATOM     28  C   UNL     1     -46.776 -19.508 -19.341  0.00  0.00    +0.000 A 
ATOM     29  C   UNL     1     -45.619 -20.096 -18.822  0.00  0.00    +0.000 A 
BRANCH  29  30
ATOM     30  O   UNL     1     -45.633 -21.440 -18.471  0.00  0.00    +0.000 OA
ATOM     31  H   UNL     1     -45.303 -22.084 -19.067  0.00  0.00    +0.000 HD
ENDBRANCH  29  30
BRANCH  24  33
ATOM     32  C   UNL     1     -42.274 -20.469 -18.961  0.00  0.00    +0.000 C 
ATOM     33  O   UNL     1     -43.305 -19.942 -18.138  0.00  0.00    +0.000 OA
ENDBRANCH  24  33
ENDBRANCH   1  26
TORSDOF 3
ENDMDL
MODEL 2
REMARK VINA RESULT:      -6.8      2.654      3.933
REMARK  Name = ZINC000031809732
REMARK  3 active torsions:
REMARK  status: ('A' for Active; 'I' for Inactive)
REMARK    1  A    between atoms: C_1  and  C_26
REMARK    2  A    between atoms: C_24  and  O_33
REMARK    3  A    between atoms: C_29  and  O_30
REMARK                            x       y       z     vdW  Elec       q    Type
REMARK                         _______ _______ _______ _____ _____    ______ ____
ROOT
ATOM      1  C   UNL     1     -44.927 -17.193 -23.412  0.00  0.00    +0.000 C 
ATOM      2  S   UNL     1     -43.441 -17.530 -24.399  0.00  0.00    +0.000 S 
ATOM      3  C   UNL     1     -44.457 -17.536 -25.886  0.00  0.00    +0.000 C 
ATOM      4  C   UNL     1     -44.401 -16.193 -26.510  0.00  0.00    +0.000 C 
ATOM      5  O   UNL     1     -43.967 -16.095 -27.687  0.00  0.00    +0.000 OA
ATOM      6  N   UNL     1     -44.830 -15.010 -25.830  0.00  0.00    +0.000 N 
ATOM      7  C   UNL     1     -45.322 -14.825 -24.490  0.00  0.00    +0.000 A 
ATOM      8  C   UNL     1     -45.305 -15.722 -23.415  0.00  0.00    +0.000 A 
ATOM      9  C   UNL     1     -45.851 -14.970 -22.368  0.00  0.00    +0.000 A 
ATOM     10  C   UNL     1     -46.170 -15.426 -20.986  0.00  0.00    +0.000 C 
ATOM     11  N   UNL     1     -46.125 -13.721 -22.782  0.00  0.00    +0.000 NA
ATOM     12  N   UNL     1     -45.810 -13.641 -24.062  0.00  0.00    +0.000 N 
ATOM     13  H   UNL     1     -44.781 -14.186 -26.367  0.00  0.00    +0.000 HD
ATOM     14  C   UNL     1     -45.960 -12.430 -24.818  0.00  0.00    +0.000 A 
ATOM     15  N   UNL     1     -45.751 -11.219 -24.218  0.00  0.00    +0.000 NA
ATOM     16  C   UNL     1     -45.914 -10.042 -24.903  0.00  0.00    +0.000 A 
ATOM     17  N   UNL     1     -46.308 -10.050 -26.212  0.00  0.00    +0.000 NA
ATOM     18  C   UNL     1     -46.529 -11.248 -26.804  0.00  0.00    +0.000 A 
ATOM     19  N   UNL     1     -46.972 -11.453 -28.050  0.00  0.00    +0.000 N 
ATOM     20  C   UNL     1     -47.077 -12.809 -28.105  0.00  0.00    +0.000 A 
ATOM     21  N   UNL     1     -46.725 -13.437 -26.948  0.00  0.00    +0.000 NA
ATOM     22  C   UNL     1     -46.373 -12.419 -26.150  0.00  0.00    +0.000 A 
ATOM     23  H   UNL     1     -47.169 -10.791 -28.750  0.00  0.00    +0.000 HD
ENDROOT
BRANCH   1  26
ATOM     24  C   UNL     1     -43.439 -18.280 -20.068  0.00  0.00    +0.000 A 
ATOM     25  C   UNL     1     -43.568 -17.698 -21.340  0.00  0.00    +0.000 A 
ATOM     26  C   UNL     1     -44.771 -17.808 -22.054  0.00  0.00    +0.000 A 
ATOM     27  C   UNL     1     -45.843 -18.508 -21.496  0.00  0.00    +0.000 A 
ATOM     28  C   UNL     1     -45.721 -19.091 -20.232  0.00  0.00    +0.000 A 
ATOM     29  C   UNL     1     -44.524 -18.977 -19.518  0.00  0.00    +0.000 A 
BRANCH  29  30
ATOM     30  O   UNL     1     -44.418 -19.561 -18.263  0.00  0.00    +0.000 OA
ATOM     31  H   UNL     1     -44.472 -19.029 -17.493  0.00  0.00    +0.000 HD
ENDBRANCH  29  30
BRANCH  24  33
ATOM     32  C   UNL     1     -41.133 -19.027 -19.567  0.00  0.00    +0.000 C 
ATOM     33  O   UNL     1     -42.249 -18.178 -19.340  0.00  0.00    +0.000 OA
ENDBRANCH  24  33
ENDBRANCH   1  26
TORSDOF 3
ENDMDL
MODEL 3
REMARK VINA RESULT:      -6.7      9.813     13.242
REMARK  Name = ZINC000031809732
REMARK  3 active torsions:
REMARK  status: ('A' for Active; 'I' for Inactive)
REMARK    1  A    between atoms: C_1  and  C_26
REMARK    2  A    between atoms: C_24  and  O_33
REMARK    3  A    between atoms: C_29  and  O_30
REMARK                            x       y       z     vdW  Elec       q    Type
REMARK                         _______ _______ _______ _____ _____    ______ ____
ROOT
ATOM      1  C   UNL     1     -46.289  -6.144 -29.230  0.00  0.00    +0.000 C 
ATOM      2  S   UNL     1     -47.411  -6.500 -30.611  0.00  0.00    +0.000 S 
ATOM      3  C   UNL     1     -47.623  -4.730 -30.866  0.00  0.00    +0.000 C 
ATOM      4  C   UNL     1     -46.685  -4.282 -31.922  0.00  0.00    +0.000 C 
ATOM      5  O   UNL     1     -47.156  -3.748 -32.959  0.00  0.00    +0.000 OA
ATOM      6  N   UNL     1     -45.266  -4.424 -31.802  0.00  0.00    +0.000 N 
ATOM      7  C   UNL     1     -44.469  -5.023 -30.764  0.00  0.00    +0.000 A 
ATOM      8  C   UNL     1     -44.877  -5.828 -29.693  0.00  0.00    +0.000 A 
ATOM      9  C   UNL     1     -43.670  -6.163 -29.070  0.00  0.00    +0.000 A 
ATOM     10  C   UNL     1     -43.476  -6.934 -27.811  0.00  0.00    +0.000 C 
ATOM     11  N   UNL     1     -42.634  -5.634 -29.744  0.00  0.00    +0.000 NA
ATOM     12  N   UNL     1     -43.120  -4.944 -30.759  0.00  0.00    +0.000 N 
ATOM     13  H   UNL     1     -44.749  -4.050 -32.552  0.00  0.00    +0.000 HD
ATOM     14  C   UNL     1     -42.279  -4.262 -31.701  0.00  0.00    +0.000 A 
ATOM     15  N   UNL     1     -41.069  -4.795 -32.048  0.00  0.00    +0.000 NA
ATOM     16  C   UNL     1     -40.228  -4.155 -32.922  0.00  0.00    +0.000 A 
ATOM     17  N   UNL     1     -40.576  -2.949 -33.463  0.00  0.00    +0.000 NA
ATOM     18  C   UNL     1     -41.769  -2.413 -33.110  0.00  0.00    +0.000 A 
ATOM     19  N   UNL     1     -42.252  -1.224 -33.487  0.00  0.00    +0.000 N 
ATOM     20  C   UNL     1     -43.428  -1.155 -32.806  0.00  0.00    +0.000 A 
ATOM     21  N   UNL     1     -43.679  -2.245 -32.028  0.00  0.00    +0.000 NA
ATOM     22  C   UNL     1     -42.613  -3.025 -32.253  0.00  0.00    +0.000 A 
ATOM     23  H   UNL     1     -41.857  -0.566 -34.103  0.00  0.00    +0.000 HD
ENDROOT
BRANCH   1  26
ATOM     24  C   UNL     1     -46.468  -9.602 -27.622  0.00  0.00    +0.000 A 
ATOM     25  C   UNL     1     -46.369  -8.589 -28.589  0.00  0.00    +0.000 A 
ATOM     26  C   UNL     1     -46.394  -7.238 -28.211  0.00  0.00    +0.000 A 
ATOM     27  C   UNL     1     -46.526  -6.902 -26.861  0.00  0.00    +0.000 A 
ATOM     28  C   UNL     1     -46.627  -7.905 -25.893  0.00  0.00    +0.000 A 
ATOM     29  C   UNL     1     -46.597  -9.251 -26.270  0.00  0.00    +0.000 A 
BRANCH  29  30
ATOM     30  O   UNL     1     -46.697 -10.236 -25.296  0.00  0.00    +0.000 OA
ATOM     31  H   UNL     1     -47.530 -10.617 -25.099  0.00  0.00    +0.000 HD
ENDBRANCH  29  30
BRANCH  24  33
ATOM     32  C   UNL     1     -46.749 -11.409 -29.289  0.00  0.00    +0.000 C 
ATOM     33  O   UNL     1     -46.441 -10.955 -27.979  0.00  0.00    +0.000 OA
ENDBRANCH  24  33
ENDBRANCH   1  26
TORSDOF 3
ENDMDL
