MODEL 1
REMARK VINA RESULT:      -6.1      0.000      0.000
REMARK  Name = ZINC000009668994 ZINC09668994 MCULE-8076656681 MolPort-002-986-247 PubChem-16479684
REMARK  7 active torsions:
REMARK  status: ('A' for Active; 'I' for Inactive)
REMARK    1  A    between atoms: C_1  and  C_2
REMARK    2  A    between atoms: C_1  and  S_16
REMARK    3  A    between atoms: N_4  and  C_6
REMARK    4  A    between atoms: C_8  and  N_13
REMARK    5  A    between atoms: S_16  and  C_20
REMARK    6  A    between atoms: C_17  and  C_29
REMARK    7  A    between atoms: N_21  and  C_22
REMARK                            x       y       z     vdW  Elec       q    Type
REMARK                         _______ _______ _______ _____ _____    ______ ____
ROOT
ATOM      1  C   UNL     1     -45.586 -17.708 -24.954  0.00  0.00    +0.000 C 
ENDROOT
BRANCH   1   2
ATOM      2  C   UNL     1     -44.861 -17.847 -26.252  0.00  0.00    +0.000 C 
ATOM      3  O   UNL     1     -44.799 -18.985 -26.785  0.00  0.00    +0.000 OA
ATOM      4  N   UNL     1     -44.217 -16.742 -26.902  0.00  0.00    +0.000 N 
ATOM      5  H   UNL     1     -43.577 -16.972 -27.614  0.00  0.00    +0.000 HD
BRANCH   4   6
ATOM      6  C   UNL     1     -44.394 -15.340 -26.638  0.00  0.00    +0.000 A 
ATOM      7  C   UNL     1     -45.523 -14.644 -27.095  0.00  0.00    +0.000 A 
ATOM      8  C   UNL     1     -45.674 -13.272 -26.858  0.00  0.00    +0.000 A 
ATOM      9  C   UNL     1     -44.671 -12.586 -26.162  0.00  0.00    +0.000 A 
ATOM     10  C   UNL     1     -43.538 -13.263 -25.709  0.00  0.00    +0.000 A 
ATOM     11  C   UNL     1     -43.394 -14.633 -25.944  0.00  0.00    +0.000 A 
ATOM     12  C   UNL     1     -42.167 -15.322 -25.451  0.00  0.00    +0.000 C 
BRANCH   8  13
ATOM     13  N   UNL     1     -46.847 -12.585 -27.315  0.00  0.00    +0.000 N 
ATOM     14  O   UNL     1     -47.389 -11.567 -26.562  0.00  0.00    +0.000 OA
ATOM     15  O   UNL     1     -47.377 -12.886 -28.404  0.00  0.00    +0.000 OA
ENDBRANCH   8  13
ENDBRANCH   4   6
ENDBRANCH   1   2
BRANCH   1  16
ATOM     16  S   UNL     1     -44.424 -17.834 -23.563  0.00  0.00    +0.000 S 
BRANCH  16  20
ATOM     17  C   UNL     1     -46.264 -15.398 -21.189  0.00  0.00    +0.000 A 
ATOM     18  N   UNL     1     -46.341 -14.701 -22.338  0.00  0.00    +0.000 NA
ATOM     19  N   UNL     1     -45.718 -15.410 -23.267  0.00  0.00    +0.000 NA
ATOM     20  C   UNL     1     -45.260 -16.525 -22.667  0.00  0.00    +0.000 A 
ATOM     21  N   UNL     1     -45.587 -16.557 -21.355  0.00  0.00    +0.000 N 
BRANCH  21  22
ATOM     22  C   UNL     1     -45.300 -17.579 -20.377  0.00  0.00    +0.000 A 
ATOM     23  C   UNL     1     -46.207 -18.627 -20.151  0.00  0.00    +0.000 A 
ATOM     24  C   UNL     1     -45.926 -19.619 -19.206  0.00  0.00    +0.000 A 
ATOM     25  C   UNL     1     -44.737 -19.569 -18.473  0.00  0.00    +0.000 A 
ATOM     26  C   UNL     1     -43.830 -18.527 -18.684  0.00  0.00    +0.000 A 
ATOM     27  C   UNL     1     -44.111 -17.539 -19.631  0.00  0.00    +0.000 A 
ENDBRANCH  21  22
BRANCH  17  29
ATOM     28  C   UNL     1     -47.605 -13.624 -20.122  0.00  0.00    +0.000 C 
ATOM     29  C   UNL     1     -46.851 -14.920 -19.902  0.00  0.00    +0.000 C 
ENDBRANCH  17  29
ENDBRANCH  16  20
ENDBRANCH   1  16
TORSDOF 7
ENDMDL
MODEL 2
REMARK VINA RESULT:      -6.0      1.760      3.176
REMARK  Name = ZINC000009668994 ZINC09668994 MCULE-8076656681 MolPort-002-986-247 PubChem-16479684
REMARK  7 active torsions:
REMARK  status: ('A' for Active; 'I' for Inactive)
REMARK    1  A    between atoms: C_1  and  C_2
REMARK    2  A    between atoms: C_1  and  S_16
REMARK    3  A    between atoms: N_4  and  C_6
REMARK    4  A    between atoms: C_8  and  N_13
REMARK    5  A    between atoms: S_16  and  C_20
REMARK    6  A    between atoms: C_17  and  C_29
REMARK    7  A    between atoms: N_21  and  C_22
REMARK                            x       y       z     vdW  Elec       q    Type
REMARK                         _______ _______ _______ _____ _____    ______ ____
ROOT
ATOM      1  C   UNL     1     -44.040 -17.461 -24.425  0.00  0.00    +0.000 C 
ENDROOT
BRANCH   1   2
ATOM      2  C   UNL     1     -44.662 -17.868 -25.720  0.00  0.00    +0.000 C 
ATOM      3  O   UNL     1     -45.140 -19.028 -25.817  0.00  0.00    +0.000 OA
ATOM      4  N   UNL     1     -44.716 -16.999 -26.860  0.00  0.00    +0.000 N 
ATOM      5  H   UNL     1     -44.925 -17.428 -27.722  0.00  0.00    +0.000 HD
BRANCH   4   6
ATOM      6  C   UNL     1     -44.502 -15.578 -26.896  0.00  0.00    +0.000 A 
ATOM      7  C   UNL     1     -45.493 -14.677 -26.476  0.00  0.00    +0.000 A 
ATOM      8  C   UNL     1     -45.287 -13.293 -26.540  0.00  0.00    +0.000 A 
ATOM      9  C   UNL     1     -44.074 -12.806 -27.044  0.00  0.00    +0.000 A 
ATOM     10  C   UNL     1     -43.083 -13.691 -27.474  0.00  0.00    +0.000 A 
ATOM     11  C   UNL     1     -43.292 -15.072 -27.403  0.00  0.00    +0.000 A 
ATOM     12  C   UNL     1     -42.214 -15.986 -27.877  0.00  0.00    +0.000 C 
BRANCH   8  13
ATOM     13  N   UNL     1     -46.303 -12.390 -26.086  0.00  0.00    +0.000 N 
ATOM     14  O   UNL     1     -46.157 -11.733 -24.884  0.00  0.00    +0.000 OA
ATOM     15  O   UNL     1     -47.318 -12.172 -26.780  0.00  0.00    +0.000 OA
ENDBRANCH   8  13
ENDBRANCH   4   6
ENDBRANCH   1   2
BRANCH   1  16
ATOM     16  S   UNL     1     -45.324 -17.119 -23.187  0.00  0.00    +0.000 S 
BRANCH  16  20
ATOM     17  C   UNL     1     -43.885 -19.208 -20.269  0.00  0.00    +0.000 A 
ATOM     18  N   UNL     1     -43.420 -19.921 -21.312  0.00  0.00    +0.000 NA
ATOM     19  N   UNL     1     -43.860 -19.332 -22.414  0.00  0.00    +0.000 NA
ATOM     20  C   UNL     1     -44.596 -18.273 -22.024  0.00  0.00    +0.000 A 
ATOM     21  N   UNL     1     -44.633 -18.159 -20.677  0.00  0.00    +0.000 N 
BRANCH  21  22
ATOM     22  C   UNL     1     -45.294 -17.160 -19.872  0.00  0.00    +0.000 A 
ATOM     23  C   UNL     1     -44.643 -15.958 -19.548  0.00  0.00    +0.000 A 
ATOM     24  C   UNL     1     -45.286 -14.988 -18.772  0.00  0.00    +0.000 A 
ATOM     25  C   UNL     1     -46.585 -15.213 -18.308  0.00  0.00    +0.000 A 
ATOM     26  C   UNL     1     -47.240 -16.407 -18.619  0.00  0.00    +0.000 A 
ATOM     27  C   UNL     1     -46.598 -17.373 -19.396  0.00  0.00    +0.000 A 
ENDBRANCH  21  22
BRANCH  17  29
ATOM     28  C   UNL     1     -44.741 -20.384 -18.276  0.00  0.00    +0.000 C 
ATOM     29  C   UNL     1     -43.601 -19.564 -18.846  0.00  0.00    +0.000 C 
ENDBRANCH  17  29
ENDBRANCH  16  20
ENDBRANCH   1  16
TORSDOF 7
ENDMDL
MODEL 3
REMARK VINA RESULT:      -6.0      3.076      5.571
REMARK  Name = ZINC000009668994 ZINC09668994 MCULE-8076656681 MolPort-002-986-247 PubChem-16479684
REMARK  7 active torsions:
REMARK  status: ('A' for Active; 'I' for Inactive)
REMARK    1  A    between atoms: C_1  and  C_2
REMARK    2  A    between atoms: C_1  and  S_16
REMARK    3  A    between atoms: N_4  and  C_6
REMARK    4  A    between atoms: C_8  and  N_13
REMARK    5  A    between atoms: S_16  and  C_20
REMARK    6  A    between atoms: C_17  and  C_29
REMARK    7  A    between atoms: N_21  and  C_22
REMARK                            x       y       z     vdW  Elec       q    Type
REMARK                         _______ _______ _______ _____ _____    ______ ____
ROOT
ATOM      1  C   UNL     1     -41.973 -17.505 -20.175  0.00  0.00    +0.000 C 
ENDROOT
BRANCH   1   2
ATOM      2  C   UNL     1     -43.029 -18.433 -19.674  0.00  0.00    +0.000 C 
ATOM      3  O   UNL     1     -43.435 -18.298 -18.491  0.00  0.00    +0.000 OA
ATOM      4  N   UNL     1     -43.583 -19.483 -20.480  0.00  0.00    +0.000 N 
ATOM      5  H   UNL     1     -44.088 -20.178 -19.999  0.00  0.00    +0.000 HD
BRANCH   4   6
ATOM      6  C   UNL     1     -43.487 -19.644 -21.906  0.00  0.00    +0.000 A 
ATOM      7  C   UNL     1     -44.438 -19.082 -22.771  0.00  0.00    +0.000 A 
ATOM      8  C   UNL     1     -44.353 -19.266 -24.158  0.00  0.00    +0.000 A 
ATOM      9  C   UNL     1     -43.306 -20.035 -24.681  0.00  0.00    +0.000 A 
ATOM     10  C   UNL     1     -42.359 -20.608 -23.830  0.00  0.00    +0.000 A 
ATOM     11  C   UNL     1     -42.445 -20.417 -22.448  0.00  0.00    +0.000 A 
ATOM     12  C   UNL     1     -41.419 -21.050 -21.571  0.00  0.00    +0.000 C 
BRANCH   8  13
ATOM     13  N   UNL     1     -45.322 -18.664 -25.026  0.00  0.00    +0.000 N 
ATOM     14  O   UNL     1     -44.928 -17.731 -25.960  0.00  0.00    +0.000 OA
ATOM     15  O   UNL     1     -46.525 -18.993 -24.962  0.00  0.00    +0.000 OA
ENDBRANCH   8  13
ENDBRANCH   4   6
ENDBRANCH   1   2
BRANCH   1  16
ATOM     16  S   UNL     1     -42.419 -15.782 -19.809  0.00  0.00    +0.000 S 
BRANCH  16  20
ATOM     17  C   UNL     1     -44.854 -15.545 -22.804  0.00  0.00    +0.000 A 
ATOM     18  N   UNL     1     -43.681 -15.577 -23.464  0.00  0.00    +0.000 NA
ATOM     19  N   UNL     1     -42.722 -15.634 -22.552  0.00  0.00    +0.000 NA
ATOM     20  C   UNL     1     -43.326 -15.626 -21.348  0.00  0.00    +0.000 A 
ATOM     21  N   UNL     1     -44.672 -15.574 -21.464  0.00  0.00    +0.000 N 
BRANCH  21  22
ATOM     22  C   UNL     1     -45.670 -15.566 -20.422  0.00  0.00    +0.000 A 
ATOM     23  C   UNL     1     -46.178 -14.353 -19.929  0.00  0.00    +0.000 A 
ATOM     24  C   UNL     1     -47.149 -14.346 -18.922  0.00  0.00    +0.000 A 
ATOM     25  C   UNL     1     -47.616 -15.553 -18.393  0.00  0.00    +0.000 A 
ATOM     26  C   UNL     1     -47.113 -16.765 -18.870  0.00  0.00    +0.000 A 
ATOM     27  C   UNL     1     -46.146 -16.770 -19.878  0.00  0.00    +0.000 A 
ENDBRANCH  21  22
BRANCH  17  29
ATOM     28  C   UNL     1     -46.066 -14.641 -24.753  0.00  0.00    +0.000 C 
ATOM     29  C   UNL     1     -46.177 -15.475 -23.493  0.00  0.00    +0.000 C 
ENDBRANCH  17  29
ENDBRANCH  16  20
ENDBRANCH   1  16
TORSDOF 7
ENDMDL
