MODEL 1
REMARK VINA RESULT:      -7.2      0.000      0.000
REMARK  Name = ZINC000031810539
REMARK  1 active torsions:
REMARK  status: ('A' for Active; 'I' for Inactive)
REMARK    1  A    between atoms: C_7  and  C_24
REMARK                            x       y       z     vdW  Elec       q    Type
REMARK                         _______ _______ _______ _____ _____    ______ ____
ROOT
ATOM      1  C   UNL     1     -46.504 -15.186 -20.978  0.00  0.00    +0.000 C 
ATOM      2  C   UNL     1     -46.036 -14.793 -22.337  0.00  0.00    +0.000 A 
ATOM      3  N   UNL     1     -46.257 -13.565 -22.836  0.00  0.00    +0.000 NA
ATOM      4  N   UNL     1     -45.812 -13.547 -24.079  0.00  0.00    +0.000 N 
ATOM      5  C   UNL     1     -45.295 -14.754 -24.398  0.00  0.00    +0.000 A 
ATOM      6  C   UNL     1     -45.387 -15.595 -23.281  0.00  0.00    +0.000 A 
ATOM      7  C   UNL     1     -45.033 -17.070 -23.156  0.00  0.00    +0.000 C 
ATOM      8  S   UNL     1     -43.535 -17.523 -24.074  0.00  0.00    +0.000 S 
ATOM      9  C   UNL     1     -44.482 -17.552 -25.604  0.00  0.00    +0.000 C 
ATOM     10  C   UNL     1     -44.308 -16.249 -26.285  0.00  0.00    +0.000 C 
ATOM     11  O   UNL     1     -43.799 -16.233 -27.436  0.00  0.00    +0.000 OA
ATOM     12  N   UNL     1     -44.701 -15.013 -25.683  0.00  0.00    +0.000 N 
ATOM     13  H   UNL     1     -44.541 -14.214 -26.235  0.00  0.00    +0.000 HD
ATOM     14  C   UNL     1     -45.881 -12.376 -24.905  0.00  0.00    +0.000 A 
ATOM     15  N   UNL     1     -45.530 -11.157 -24.396  0.00  0.00    +0.000 NA
ATOM     16  C   UNL     1     -45.613 -10.015 -25.150  0.00  0.00    +0.000 A 
ATOM     17  N   UNL     1     -46.068 -10.064 -26.437  0.00  0.00    +0.000 NA
ATOM     18  C   UNL     1     -46.431 -11.269 -26.939  0.00  0.00    +0.000 A 
ATOM     19  N   UNL     1     -46.952 -11.506 -28.149  0.00  0.00    +0.000 N 
ATOM     20  C   UNL     1     -47.189 -12.845 -28.110  0.00  0.00    +0.000 A 
ATOM     21  N   UNL     1     -46.842 -13.432 -26.931  0.00  0.00    +0.000 NA
ATOM     22  C   UNL     1     -46.356 -12.406 -26.217  0.00  0.00    +0.000 A 
ATOM     23  H   UNL     1     -47.119 -10.871 -28.882  0.00  0.00    +0.000 HD
ENDROOT
BRANCH   7  24
ATOM     24  C   UNL     1     -44.907 -17.563 -21.746  0.00  0.00    +0.000 A 
ATOM     25  C   UNL     1     -43.799 -17.174 -20.985  0.00  0.00    +0.000 A 
ATOM     26  C   UNL     1     -43.660 -17.618 -19.666  0.00  0.00    +0.000 A 
ATOM     27  C   UNL     1     -44.631 -18.452 -19.104  0.00  0.00    +0.000 A 
ATOM     28  C   UNL     1     -45.742 -18.841 -19.857  0.00  0.00    +0.000 A 
ATOM     29  F   UNL     1     -46.682 -19.647 -19.312  0.00  0.00    +0.000 F 
ATOM     30  C   UNL     1     -45.882 -18.398 -21.176  0.00  0.00    +0.000 A 
ENDBRANCH   7  24
TORSDOF 1
ENDMDL
MODEL 2
REMARK VINA RESULT:      -6.9     12.987     15.077
REMARK  Name = ZINC000031810539
REMARK  1 active torsions:
REMARK  status: ('A' for Active; 'I' for Inactive)
REMARK    1  A    between atoms: C_7  and  C_24
REMARK                            x       y       z     vdW  Elec       q    Type
REMARK                         _______ _______ _______ _____ _____    ______ ____
ROOT
ATOM      1  C   UNL     1     -47.082  -3.612 -33.675  0.00  0.00    +0.000 C 
ATOM      2  C   UNL     1     -46.402  -4.831 -34.199  0.00  0.00    +0.000 A 
ATOM      3  N   UNL     1     -46.974  -5.617 -35.126  0.00  0.00    +0.000 NA
ATOM      4  N   UNL     1     -46.181  -6.655 -35.320  0.00  0.00    +0.000 N 
ATOM      5  C   UNL     1     -45.089  -6.551 -34.532  0.00  0.00    +0.000 A 
ATOM      6  C   UNL     1     -45.169  -5.358 -33.803  0.00  0.00    +0.000 A 
ATOM      7  C   UNL     1     -44.243  -4.830 -32.717  0.00  0.00    +0.000 C 
ATOM      8  S   UNL     1     -42.490  -5.162 -33.052  0.00  0.00    +0.000 S 
ATOM      9  C   UNL     1     -42.705  -6.858 -32.489  0.00  0.00    +0.000 C 
ATOM     10  C   UNL     1     -42.926  -7.718 -33.675  0.00  0.00    +0.000 C 
ATOM     11  O   UNL     1     -42.113  -8.650 -33.903  0.00  0.00    +0.000 OA
ATOM     12  N   UNL     1     -44.031  -7.527 -34.562  0.00  0.00    +0.000 N 
ATOM     13  H   UNL     1     -44.076  -8.165 -35.310  0.00  0.00    +0.000 HD
ATOM     14  C   UNL     1     -46.487  -7.694 -36.262  0.00  0.00    +0.000 A 
ATOM     15  N   UNL     1     -46.947  -7.373 -37.509  0.00  0.00    +0.000 NA
ATOM     16  C   UNL     1     -47.276  -8.341 -38.422  0.00  0.00    +0.000 A 
ATOM     17  N   UNL     1     -47.168  -9.665 -38.101  0.00  0.00    +0.000 NA
ATOM     18  C   UNL     1     -46.727  -9.984 -36.861  0.00  0.00    +0.000 A 
ATOM     19  N   UNL     1     -46.612 -11.215 -36.347  0.00  0.00    +0.000 N 
ATOM     20  C   UNL     1     -46.198 -10.965 -35.075  0.00  0.00    +0.000 A 
ATOM     21  N   UNL     1     -46.061  -9.641 -34.790  0.00  0.00    +0.000 NA
ATOM     22  C   UNL     1     -46.395  -9.050 -35.946  0.00  0.00    +0.000 A 
ATOM     23  H   UNL     1     -46.782 -12.082 -36.781  0.00  0.00    +0.000 HD
ENDROOT
BRANCH   7  24
ATOM     24  C   UNL     1     -44.410  -3.372 -32.410  0.00  0.00    +0.000 A 
ATOM     25  C   UNL     1     -45.134  -2.994 -31.273  0.00  0.00    +0.000 A 
ATOM     26  C   UNL     1     -45.301  -1.640 -30.963  0.00  0.00    +0.000 A 
ATOM     27  C   UNL     1     -44.743  -0.660 -31.789  0.00  0.00    +0.000 A 
ATOM     28  C   UNL     1     -44.017  -1.032 -32.924  0.00  0.00    +0.000 A 
ATOM     29  F   UNL     1     -43.476  -0.082 -33.723  0.00  0.00    +0.000 F 
ATOM     30  C   UNL     1     -43.849  -2.384 -33.235  0.00  0.00    +0.000 A 
ENDBRANCH   7  24
TORSDOF 1
ENDMDL
MODEL 3
REMARK VINA RESULT:      -6.7      8.866     10.796
REMARK  Name = ZINC000031810539
REMARK  1 active torsions:
REMARK  status: ('A' for Active; 'I' for Inactive)
REMARK    1  A    between atoms: C_7  and  C_24
REMARK                            x       y       z     vdW  Elec       q    Type
REMARK                         _______ _______ _______ _____ _____    ______ ____
ROOT
ATOM      1  C   UNL     1     -47.559  -4.580 -26.188  0.00  0.00    +0.000 C 
ATOM      2  C   UNL     1     -46.902  -4.804 -27.506  0.00  0.00    +0.000 A 
ATOM      3  N   UNL     1     -46.831  -3.837 -28.436  0.00  0.00    +0.000 NA
ATOM      4  N   UNL     1     -46.281  -4.356 -29.518  0.00  0.00    +0.000 N 
ATOM      5  C   UNL     1     -45.983  -5.656 -29.302  0.00  0.00    +0.000 A 
ATOM      6  C   UNL     1     -46.339  -5.990 -27.989  0.00  0.00    +0.000 A 
ATOM      7  C   UNL     1     -46.293  -7.343 -27.294  0.00  0.00    +0.000 C 
ATOM      8  S   UNL     1     -44.835  -8.325 -27.743  0.00  0.00    +0.000 S 
ATOM      9  C   UNL     1     -45.627  -8.790 -29.292  0.00  0.00    +0.000 C 
ATOM     10  C   UNL     1     -45.139  -7.881 -30.355  0.00  0.00    +0.000 C 
ATOM     11  O   UNL     1     -44.535  -8.377 -31.341  0.00  0.00    +0.000 OA
ATOM     12  N   UNL     1     -45.336  -6.466 -30.301  0.00  0.00    +0.000 N 
ATOM     13  H   UNL     1     -44.974  -5.968 -31.068  0.00  0.00    +0.000 HD
ATOM     14  C   UNL     1     -46.044  -3.588 -30.707  0.00  0.00    +0.000 A 
ATOM     15  N   UNL     1     -45.509  -2.333 -30.616  0.00  0.00    +0.000 NA
ATOM     16  C   UNL     1     -45.298  -1.562 -31.729  0.00  0.00    +0.000 A 
ATOM     17  N   UNL     1     -45.635  -2.026 -32.970  0.00  0.00    +0.000 NA
ATOM     18  C   UNL     1     -46.179  -3.263 -33.061  0.00  0.00    +0.000 A 
ATOM     19  N   UNL     1     -46.623  -3.859 -34.174  0.00  0.00    +0.000 N 
ATOM     20  C   UNL     1     -47.120  -5.033 -33.698  0.00  0.00    +0.000 A 
ATOM     21  N   UNL     1     -47.004  -5.176 -32.349  0.00  0.00    +0.000 NA
ATOM     22  C   UNL     1     -46.394  -4.041 -31.980  0.00  0.00    +0.000 A 
ATOM     23  H   UNL     1     -46.596  -3.531 -35.101  0.00  0.00    +0.000 HD
ENDROOT
BRANCH   7  24
ATOM     24  C   UNL     1     -46.395  -7.279 -25.800  0.00  0.00    +0.000 A 
ATOM     25  C   UNL     1     -47.580  -7.689 -25.179  0.00  0.00    +0.000 A 
ATOM     26  C   UNL     1     -47.698  -7.643 -23.786  0.00  0.00    +0.000 A 
ATOM     27  C   UNL     1     -46.628  -7.187 -23.009  0.00  0.00    +0.000 A 
ATOM     28  C   UNL     1     -45.440  -6.781 -23.623  0.00  0.00    +0.000 A 
ATOM     29  F   UNL     1     -44.404  -6.341 -22.870  0.00  0.00    +0.000 F 
ATOM     30  C   UNL     1     -45.322  -6.827 -25.015  0.00  0.00    +0.000 A 
ENDBRANCH   7  24
TORSDOF 1
ENDMDL
