MODEL 1
REMARK VINA RESULT:      -7.0      0.000      0.000
REMARK  Name = ZINC000031811577
REMARK  1 active torsions:
REMARK  status: ('A' for Active; 'I' for Inactive)
REMARK    1  A    between atoms: C_7  and  C_24
REMARK                            x       y       z     vdW  Elec       q    Type
REMARK                         _______ _______ _______ _____ _____    ______ ____
ROOT
ATOM      1  C   UNL     1     -45.111 -18.468 -22.198  0.00  0.00    +0.000 C 
ATOM      2  C   UNL     1     -45.395 -17.007 -22.249  0.00  0.00    +0.000 A 
ATOM      3  N   UNL     1     -45.362 -16.310 -23.397  0.00  0.00    +0.000 NA
ATOM      4  N   UNL     1     -45.724 -15.067 -23.133  0.00  0.00    +0.000 N 
ATOM      5  C   UNL     1     -46.041 -14.958 -21.821  0.00  0.00    +0.000 A 
ATOM      6  C   UNL     1     -45.781 -16.181 -21.190  0.00  0.00    +0.000 A 
ATOM      7  C   UNL     1     -45.953 -16.575 -19.731  0.00  0.00    +0.000 C 
ATOM      8  S   UNL     1     -45.698 -15.186 -18.590  0.00  0.00    +0.000 S 
ATOM      9  C   UNL     1     -47.362 -14.605 -18.957  0.00  0.00    +0.000 C 
ATOM     10  C   UNL     1     -47.285 -13.559 -20.003  0.00  0.00    +0.000 C 
ATOM     11  O   UNL     1     -47.756 -12.421 -19.749  0.00  0.00    +0.000 OA
ATOM     12  N   UNL     1     -46.705 -13.797 -21.289  0.00  0.00    +0.000 N 
ATOM     13  H   UNL     1     -46.771 -13.040 -21.916  0.00  0.00    +0.000 HD
ATOM     14  C   UNL     1     -45.808 -14.063 -24.158  0.00  0.00    +0.000 A 
ATOM     15  N   UNL     1     -46.274 -14.400 -25.400  0.00  0.00    +0.000 NA
ATOM     16  C   UNL     1     -46.340 -13.485 -26.420  0.00  0.00    +0.000 A 
ATOM     17  N   UNL     1     -45.919 -12.200 -26.226  0.00  0.00    +0.000 NA
ATOM     18  C   UNL     1     -45.439 -11.865 -25.006  0.00  0.00    +0.000 A 
ATOM     19  N   UNL     1     -44.946 -10.675 -24.644  0.00  0.00    +0.000 N 
ATOM     20  C   UNL     1     -44.559 -10.894 -23.358  0.00  0.00    +0.000 A 
ATOM     21  N   UNL     1     -44.789 -12.164 -22.925  0.00  0.00    +0.000 NA
ATOM     22  C   UNL     1     -45.358 -12.749 -23.987  0.00  0.00    +0.000 A 
ATOM     23  H   UNL     1     -44.881  -9.848 -25.174  0.00  0.00    +0.000 HD
ENDROOT
BRANCH   7  24
ATOM     24  C   UNL     1     -45.065 -17.715 -19.303  0.00  0.00    +0.000 A 
ATOM     25  C   UNL     1     -45.640 -18.979 -19.083  0.00  0.00    +0.000 A 
ATOM     26  F   UNL     1     -46.976 -19.163 -19.226  0.00  0.00    +0.000 F 
ATOM     27  C   UNL     1     -44.840 -20.054 -18.685  0.00  0.00    +0.000 A 
ATOM     28  C   UNL     1     -43.467 -19.878 -18.502  0.00  0.00    +0.000 A 
ATOM     29  C   UNL     1     -42.889 -18.625 -18.714  0.00  0.00    +0.000 A 
ATOM     30  C   UNL     1     -43.678 -17.544 -19.112  0.00  0.00    +0.000 A 
ATOM     31  F   UNL     1     -43.094 -16.334 -19.301  0.00  0.00    +0.000 F 
ENDBRANCH   7  24
TORSDOF 1
ENDMDL
MODEL 2
REMARK VINA RESULT:      -6.9      4.973      7.213
REMARK  Name = ZINC000031811577
REMARK  1 active torsions:
REMARK  status: ('A' for Active; 'I' for Inactive)
REMARK    1  A    between atoms: C_7  and  C_24
REMARK                            x       y       z     vdW  Elec       q    Type
REMARK                         _______ _______ _______ _____ _____    ______ ____
ROOT
ATOM      1  C   UNL     1     -43.489 -19.454 -19.753  0.00  0.00    +0.000 C 
ATOM      2  C   UNL     1     -43.110 -19.597 -21.187  0.00  0.00    +0.000 A 
ATOM      3  N   UNL     1     -41.978 -20.210 -21.571  0.00  0.00    +0.000 NA
ATOM      4  N   UNL     1     -41.956 -20.240 -22.892  0.00  0.00    +0.000 N 
ATOM      5  C   UNL     1     -43.095 -19.689 -23.375  0.00  0.00    +0.000 A 
ATOM      6  C   UNL     1     -43.849 -19.197 -22.302  0.00  0.00    +0.000 A 
ATOM      7  C   UNL     1     -45.192 -18.481 -22.309  0.00  0.00    +0.000 C 
ATOM      8  S   UNL     1     -45.450 -17.481 -23.802  0.00  0.00    +0.000 S 
ATOM      9  C   UNL     1     -45.887 -18.976 -24.705  0.00  0.00    +0.000 C 
ATOM     10  C   UNL     1     -44.691 -19.467 -25.428  0.00  0.00    +0.000 C 
ATOM     11  O   UNL     1     -44.757 -19.597 -26.677  0.00  0.00    +0.000 OA
ATOM     12  N   UNL     1     -43.471 -19.803 -24.760  0.00  0.00    +0.000 N 
ATOM     13  H   UNL     1     -42.772 -20.175 -25.345  0.00  0.00    +0.000 HD
ATOM     14  C   UNL     1     -40.879 -20.849 -23.624  0.00  0.00    +0.000 A 
ATOM     15  N   UNL     1     -40.301 -21.995 -23.150  0.00  0.00    +0.000 NA
ATOM     16  C   UNL     1     -39.248 -22.594 -23.794  0.00  0.00    +0.000 A 
ATOM     17  N   UNL     1     -38.728 -22.042 -24.931  0.00  0.00    +0.000 NA
ATOM     18  C   UNL     1     -39.282 -20.897 -25.394  0.00  0.00    +0.000 A 
ATOM     19  N   UNL     1     -38.884 -20.195 -26.460  0.00  0.00    +0.000 N 
ATOM     20  C   UNL     1     -39.727 -19.128 -26.443  0.00  0.00    +0.000 A 
ATOM     21  N   UNL     1     -40.616 -19.147 -25.412  0.00  0.00    +0.000 NA
ATOM     22  C   UNL     1     -40.316 -20.286 -24.774  0.00  0.00    +0.000 A 
ATOM     23  H   UNL     1     -38.162 -20.399 -27.098  0.00  0.00    +0.000 HD
ENDROOT
BRANCH   7  24
ATOM     24  C   UNL     1     -45.418 -17.609 -21.102  0.00  0.00    +0.000 A 
ATOM     25  C   UNL     1     -46.379 -17.996 -20.153  0.00  0.00    +0.000 A 
ATOM     26  F   UNL     1     -47.111 -19.124 -20.333  0.00  0.00    +0.000 F 
ATOM     27  C   UNL     1     -46.610 -17.205 -19.023  0.00  0.00    +0.000 A 
ATOM     28  C   UNL     1     -45.890 -16.024 -18.834  0.00  0.00    +0.000 A 
ATOM     29  C   UNL     1     -44.936 -15.629 -19.775  0.00  0.00    +0.000 A 
ATOM     30  C   UNL     1     -44.697 -16.412 -20.906  0.00  0.00    +0.000 A 
ATOM     31  F   UNL     1     -43.774 -16.000 -21.811  0.00  0.00    +0.000 F 
ENDBRANCH   7  24
TORSDOF 1
ENDMDL
MODEL 3
REMARK VINA RESULT:      -6.8     10.616     13.713
REMARK  Name = ZINC000031811577
REMARK  1 active torsions:
REMARK  status: ('A' for Active; 'I' for Inactive)
REMARK    1  A    between atoms: C_7  and  C_24
REMARK                            x       y       z     vdW  Elec       q    Type
REMARK                         _______ _______ _______ _____ _____    ______ ____
ROOT
ATOM      1  C   UNL     1     -43.156  -7.008 -27.893  0.00  0.00    +0.000 C 
ATOM      2  C   UNL     1     -43.464  -6.228 -29.124  0.00  0.00    +0.000 A 
ATOM      3  N   UNL     1     -42.521  -5.543 -29.792  0.00  0.00    +0.000 NA
ATOM      4  N   UNL     1     -43.081  -5.018 -30.868  0.00  0.00    +0.000 N 
ATOM      5  C   UNL     1     -44.379  -5.398 -30.933  0.00  0.00    +0.000 A 
ATOM      6  C   UNL     1     -44.692  -6.135 -29.783  0.00  0.00    +0.000 A 
ATOM      7  C   UNL     1     -46.010  -6.772 -29.369  0.00  0.00    +0.000 C 
ATOM      8  S   UNL     1     -47.456  -5.852 -29.967  0.00  0.00    +0.000 S 
ATOM      9  C   UNL     1     -47.240  -6.606 -31.588  0.00  0.00    +0.000 C 
ATOM     10  C   UNL     1     -46.482  -5.673 -32.454  0.00  0.00    +0.000 C 
ATOM     11  O   UNL     1     -47.006  -5.295 -33.532  0.00  0.00    +0.000 OA
ATOM     12  N   UNL     1     -45.178  -5.193 -32.112  0.00  0.00    +0.000 N 
ATOM     13  H   UNL     1     -44.756  -4.627 -32.800  0.00  0.00    +0.000 HD
ATOM     14  C   UNL     1     -42.333  -4.233 -31.812  0.00  0.00    +0.000 A 
ATOM     15  N   UNL     1     -41.046  -4.584 -32.116  0.00  0.00    +0.000 NA
ATOM     16  C   UNL     1     -40.281  -3.847 -32.983  0.00  0.00    +0.000 A 
ATOM     17  N   UNL     1     -40.784  -2.715 -33.560  0.00  0.00    +0.000 NA
ATOM     18  C   UNL     1     -42.050  -2.352 -33.249  0.00  0.00    +0.000 A 
ATOM     19  N   UNL     1     -42.694  -1.261 -33.681  0.00  0.00    +0.000 N 
ATOM     20  C   UNL     1     -43.887  -1.347 -33.034  0.00  0.00    +0.000 A 
ATOM     21  N   UNL     1     -43.996  -2.436 -32.225  0.00  0.00    +0.000 NA
ATOM     22  C   UNL     1     -42.822  -3.059 -32.393  0.00  0.00    +0.000 A 
ATOM     23  H   UNL     1     -42.382  -0.570 -34.310  0.00  0.00    +0.000 HD
ENDROOT
BRANCH   7  24
ATOM     24  C   UNL     1     -46.147  -6.965 -27.880  0.00  0.00    +0.000 A 
ATOM     25  C   UNL     1     -46.170  -8.271 -27.363  0.00  0.00    +0.000 A 
ATOM     26  F   UNL     1     -46.099  -9.342 -28.192  0.00  0.00    +0.000 F 
ATOM     27  C   UNL     1     -46.296  -8.479 -25.987  0.00  0.00    +0.000 A 
ATOM     28  C   UNL     1     -46.404  -7.391 -25.119  0.00  0.00    +0.000 A 
ATOM     29  C   UNL     1     -46.386  -6.090 -25.625  0.00  0.00    +0.000 A 
ATOM     30  C   UNL     1     -46.259  -5.870 -26.998  0.00  0.00    +0.000 A 
ATOM     31  F   UNL     1     -46.256  -4.597 -27.466  0.00  0.00    +0.000 F 
ENDBRANCH   7  24
TORSDOF 1
ENDMDL
