MODEL 1
REMARK VINA RESULT:      -8.0      0.000      0.000
REMARK  Name = ZINC000257179241
REMARK  3 active torsions:
REMARK  status: ('A' for Active; 'I' for Inactive)
REMARK    1  A    between atoms: C_1  and  C_20
REMARK    2  A    between atoms: C_7  and  C_22
REMARK    3  A    between atoms: C_24  and  C_27
REMARK                            x       y       z     vdW  Elec       q    Type
REMARK                         _______ _______ _______ _____ _____    ______ ____
ROOT
ATOM      1  C   UNL     1     -46.573  -4.937 -31.687  0.00  0.00    +0.000 C 
ATOM      2  O   UNL     1     -47.755  -4.845 -31.260  0.00  0.00    +0.000 OA
ATOM      3  N   UNL     1     -45.948  -6.236 -31.765  0.00  0.00    +0.000 N 
ATOM      4  C   UNL     1     -46.769  -7.443 -31.811  0.00  0.00    +0.000 C 
ATOM      5  C   UNL     1     -47.426  -7.729 -30.464  0.00  0.00    +0.000 C 
ATOM      6  C   UNL     1     -46.505  -8.535 -29.560  0.00  0.00    +0.000 C 
ATOM      7  C   UNL     1     -45.467  -7.637 -28.903  0.00  0.00    +0.000 C 
ATOM      8  C   UNL     1     -44.212  -8.416 -28.541  0.00  0.00    +0.000 C 
ATOM      9  C   UNL     1     -43.450  -8.818 -29.798  0.00  0.00    +0.000 C 
ATOM     10  N   UNL     1     -42.335  -7.914 -30.058  0.00  0.00    +0.000 N 
ATOM     11  C   UNL     1     -42.462  -6.560 -30.513  0.00  0.00    +0.000 C 
ATOM     12  O   UNL     1     -41.425  -5.905 -30.791  0.00  0.00    +0.000 OA
ATOM     13  C   UNL     1     -43.792  -5.905 -30.664  0.00  0.00    +0.000 C 
ATOM     14  C   UNL     1     -44.506  -6.411 -31.908  0.00  0.00    +0.000 C 
ATOM     15  H   UNL     1     -41.426  -8.259 -29.911  0.00  0.00    +0.000 HD
ENDROOT
BRANCH   1  20
ATOM     16  C   UNL     1     -44.182  -0.132 -31.985  0.00  0.00    +0.000 C 
ATOM     17  C   UNL     1     -44.793  -1.463 -32.229  0.00  0.00    +0.000 A 
ATOM     18  C   UNL     1     -44.932  -2.064 -33.471  0.00  0.00    +0.000 A 
ATOM     19  C   UNL     1     -45.550  -3.321 -33.397  0.00  0.00    +0.000 A 
ATOM     20  C   UNL     1     -45.882  -3.696 -32.098  0.00  0.00    +0.000 A 
ATOM     21  S   UNL     1     -45.429  -2.465 -31.043  0.00  0.00    +0.000 S 
ENDBRANCH   1  20
BRANCH   7  22
ATOM     22  C   UNL     1     -46.033  -6.955 -27.704  0.00  0.00    +0.000 A 
ATOM     23  N   UNL     1     -46.117  -5.617 -27.583  0.00  0.00    +0.000 NA
ATOM     24  C   UNL     1     -46.688  -5.498 -26.365  0.00  0.00    +0.000 A 
ATOM     25  N   UNL     1     -46.932  -6.693 -25.790  0.00  0.00    +0.000 NA
ATOM     26  O   UNL     1     -46.513  -7.570 -26.651  0.00  0.00    +0.000 OA
BRANCH  24  27
ATOM     27  C   UNL     1     -47.013  -4.207 -25.740  0.00  0.00    +0.000 A 
ATOM     28  C   UNL     1     -47.117  -4.101 -24.346  0.00  0.00    +0.000 A 
ATOM     29  C   UNL     1     -47.426  -2.873 -23.753  0.00  0.00    +0.000 A 
ATOM     30  C   UNL     1     -47.632  -1.744 -24.550  0.00  0.00    +0.000 A 
ATOM     31  C   UNL     1     -47.529  -1.843 -25.941  0.00  0.00    +0.000 A 
ATOM     32  C   UNL     1     -47.220  -3.070 -26.534  0.00  0.00    +0.000 A 
ENDBRANCH  24  27
ENDBRANCH   7  22
TORSDOF 3
ENDMDL
MODEL 2
REMARK VINA RESULT:      -7.3      2.675      5.260
REMARK  Name = ZINC000257179241
REMARK  3 active torsions:
REMARK  status: ('A' for Active; 'I' for Inactive)
REMARK    1  A    between atoms: C_1  and  C_20
REMARK    2  A    between atoms: C_7  and  C_22
REMARK    3  A    between atoms: C_24  and  C_27
REMARK                            x       y       z     vdW  Elec       q    Type
REMARK                         _______ _______ _______ _____ _____    ______ ____
ROOT
ATOM      1  C   UNL     1     -42.667  -7.021 -29.051  0.00  0.00    +0.000 C 
ATOM      2  O   UNL     1     -42.517  -5.796 -29.306  0.00  0.00    +0.000 OA
ATOM      3  N   UNL     1     -43.499  -7.826 -29.915  0.00  0.00    +0.000 N 
ATOM      4  C   UNL     1     -43.773  -7.390 -31.282  0.00  0.00    +0.000 C 
ATOM      5  C   UNL     1     -44.724  -6.197 -31.313  0.00  0.00    +0.000 C 
ATOM      6  C   UNL     1     -46.177  -6.648 -31.293  0.00  0.00    +0.000 C 
ATOM      7  C   UNL     1     -46.615  -7.006 -29.880  0.00  0.00    +0.000 C 
ATOM      8  C   UNL     1     -47.756  -8.011 -29.893  0.00  0.00    +0.000 C 
ATOM      9  C   UNL     1     -47.264  -9.374 -30.365  0.00  0.00    +0.000 C 
ATOM     10  N   UNL     1     -47.013 -10.270 -29.242  0.00  0.00    +0.000 N 
ATOM     11  C   UNL     1     -45.925 -10.146 -28.317  0.00  0.00    +0.000 C 
ATOM     12  O   UNL     1     -45.758 -11.034 -27.441  0.00  0.00    +0.000 OA
ATOM     13  C   UNL     1     -44.983  -8.993 -28.364  0.00  0.00    +0.000 C 
ATOM     14  C   UNL     1     -44.009  -9.136 -29.523  0.00  0.00    +0.000 C 
ATOM     15  H   UNL     1     -47.639 -11.017 -29.108  0.00  0.00    +0.000 HD
ENDROOT
BRANCH   1  20
ATOM     16  C   UNL     1     -40.976  -8.386 -24.135  0.00  0.00    +0.000 C 
ATOM     17  C   UNL     1     -41.187  -8.190 -25.592  0.00  0.00    +0.000 A 
ATOM     18  C   UNL     1     -40.371  -8.697 -26.593  0.00  0.00    +0.000 A 
ATOM     19  C   UNL     1     -40.811  -8.347 -27.877  0.00  0.00    +0.000 A 
ATOM     20  C   UNL     1     -41.973  -7.579 -27.872  0.00  0.00    +0.000 A 
ATOM     21  S   UNL     1     -42.442  -7.313 -26.277  0.00  0.00    +0.000 S 
ENDBRANCH   1  20
BRANCH   7  22
ATOM     22  C   UNL     1     -46.992  -5.785 -29.112  0.00  0.00    +0.000 A 
ATOM     23  N   UNL     1     -46.787  -5.648 -27.788  0.00  0.00    +0.000 NA
ATOM     24  C   UNL     1     -47.274  -4.408 -27.573  0.00  0.00    +0.000 A 
ATOM     25  N   UNL     1     -47.743  -3.834 -28.700  0.00  0.00    +0.000 NA
ATOM     26  O   UNL     1     -47.550  -4.719 -29.630  0.00  0.00    +0.000 OA
BRANCH  24  27
ATOM     27  C   UNL     1     -47.286  -3.754 -26.256  0.00  0.00    +0.000 A 
ATOM     28  C   UNL     1     -47.266  -4.522 -25.084  0.00  0.00    +0.000 A 
ATOM     29  C   UNL     1     -47.278  -3.900 -23.831  0.00  0.00    +0.000 A 
ATOM     30  C   UNL     1     -47.309  -2.505 -23.744  0.00  0.00    +0.000 A 
ATOM     31  C   UNL     1     -47.328  -1.733 -24.910  0.00  0.00    +0.000 A 
ATOM     32  C   UNL     1     -47.316  -2.355 -26.161  0.00  0.00    +0.000 A 
ENDBRANCH  24  27
ENDBRANCH   7  22
TORSDOF 3
ENDMDL
MODEL 3
REMARK VINA RESULT:      -7.1      3.779      6.951
REMARK  Name = ZINC000257179241
REMARK  3 active torsions:
REMARK  status: ('A' for Active; 'I' for Inactive)
REMARK    1  A    between atoms: C_1  and  C_20
REMARK    2  A    between atoms: C_7  and  C_22
REMARK    3  A    between atoms: C_24  and  C_27
REMARK                            x       y       z     vdW  Elec       q    Type
REMARK                         _______ _______ _______ _____ _____    ______ ____
ROOT
ATOM      1  C   UNL     1     -43.660  -8.321 -25.134  0.00  0.00    +0.000 C 
ATOM      2  O   UNL     1     -43.200  -7.149 -25.066  0.00  0.00    +0.000 OA
ATOM      3  N   UNL     1     -43.732  -8.979 -26.418  0.00  0.00    +0.000 N 
ATOM      4  C   UNL     1     -42.886  -8.529 -27.521  0.00  0.00    +0.000 C 
ATOM      5  C   UNL     1     -43.348  -7.183 -28.072  0.00  0.00    +0.000 C 
ATOM      6  C   UNL     1     -44.427  -7.361 -29.131  0.00  0.00    +0.000 C 
ATOM      7  C   UNL     1     -45.785  -7.603 -28.487  0.00  0.00    +0.000 C 
ATOM      8  C   UNL     1     -46.704  -8.383 -29.413  0.00  0.00    +0.000 C 
ATOM      9  C   UNL     1     -46.224  -9.822 -29.557  0.00  0.00    +0.000 C 
ATOM     10  N   UNL     1     -46.979 -10.726 -28.695  0.00  0.00    +0.000 N 
ATOM     11  C   UNL     1     -46.870 -10.783 -27.267  0.00  0.00    +0.000 C 
ATOM     12  O   UNL     1     -47.505 -11.668 -26.636  0.00  0.00    +0.000 OA
ATOM     13  C   UNL     1     -46.023  -9.822 -26.505  0.00  0.00    +0.000 C 
ATOM     14  C   UNL     1     -44.549 -10.165 -26.652  0.00  0.00    +0.000 C 
ATOM     15  H   UNL     1     -47.611 -11.343 -29.127  0.00  0.00    +0.000 HD
ENDROOT
BRANCH   1  20
ATOM     16  C   UNL     1     -46.168  -9.844 -20.631  0.00  0.00    +0.000 C 
ATOM     17  C   UNL     1     -45.258  -9.657 -21.790  0.00  0.00    +0.000 A 
ATOM     18  C   UNL     1     -44.078 -10.353 -22.000  0.00  0.00    +0.000 A 
ATOM     19  C   UNL     1     -43.423  -9.963 -23.177  0.00  0.00    +0.000 A 
ATOM     20  C   UNL     1     -44.100  -8.971 -23.882  0.00  0.00    +0.000 A 
ATOM     21  S   UNL     1     -45.499  -8.563 -23.039  0.00  0.00    +0.000 S 
ENDBRANCH   1  20
BRANCH   7  22
ATOM     22  C   UNL     1     -46.416  -6.318 -28.071  0.00  0.00    +0.000 A 
ATOM     23  N   UNL     1     -46.291  -5.795 -26.837  0.00  0.00    +0.000 NA
ATOM     24  C   UNL     1     -47.013  -4.661 -26.957  0.00  0.00    +0.000 A 
ATOM     25  N   UNL     1     -47.539  -4.511 -28.189  0.00  0.00    +0.000 NA
ATOM     26  O   UNL     1     -47.146  -5.558 -28.849  0.00  0.00    +0.000 OA
BRANCH  24  27
ATOM     27  C   UNL     1     -47.198  -3.694 -25.865  0.00  0.00    +0.000 A 
ATOM     28  C   UNL     1     -47.391  -2.334 -26.146  0.00  0.00    +0.000 A 
ATOM     29  C   UNL     1     -47.566  -1.416 -25.107  0.00  0.00    +0.000 A 
ATOM     30  C   UNL     1     -47.551  -1.852 -23.779  0.00  0.00    +0.000 A 
ATOM     31  C   UNL     1     -47.359  -3.206 -23.491  0.00  0.00    +0.000 A 
ATOM     32  C   UNL     1     -47.184  -4.124 -24.529  0.00  0.00    +0.000 A 
ENDBRANCH  24  27
ENDBRANCH   7  22
TORSDOF 3
ENDMDL
