MODEL 1
REMARK VINA RESULT:      -6.8      0.000      0.000
REMARK  Name = ZINC000031807936
REMARK  2 active torsions:
REMARK  status: ('A' for Active; 'I' for Inactive)
REMARK    1  A    between atoms: C_1  and  C_27
REMARK    2  A    between atoms: C_24  and  O_31
REMARK                            x       y       z     vdW  Elec       q    Type
REMARK                         _______ _______ _______ _____ _____    ______ ____
ROOT
ATOM      1  C   UNL     1     -46.181  -4.471 -31.483  0.00  0.00    +0.000 C 
ATOM      2  S   UNL     1     -46.256  -4.802 -29.694  0.00  0.00    +0.000 S 
ATOM      3  C   UNL     1     -44.552  -5.401 -29.635  0.00  0.00    +0.000 C 
ATOM      4  C   UNL     1     -44.532  -6.873 -29.807  0.00  0.00    +0.000 C 
ATOM      5  O   UNL     1     -44.065  -7.579 -28.877  0.00  0.00    +0.000 OA
ATOM      6  N   UNL     1     -44.989  -7.518 -30.999  0.00  0.00    +0.000 N 
ATOM      7  C   UNL     1     -45.662  -6.980 -32.150  0.00  0.00    +0.000 A 
ATOM      8  C   UNL     1     -46.151  -5.691 -32.363  0.00  0.00    +0.000 A 
ATOM      9  C   UNL     1     -46.630  -5.728 -33.662  0.00  0.00    +0.000 A 
ATOM     10  C   UNL     1     -47.253  -4.597 -34.402  0.00  0.00    +0.000 C 
ATOM     11  N   UNL     1     -46.448  -6.950 -34.194  0.00  0.00    +0.000 NA
ATOM     12  N   UNL     1     -45.879  -7.707 -33.270  0.00  0.00    +0.000 N 
ATOM     13  H   UNL     1     -44.816  -8.486 -31.037  0.00  0.00    +0.000 HD
ATOM     14  C   UNL     1     -45.513  -9.074 -33.511  0.00  0.00    +0.000 A 
ATOM     15  N   UNL     1     -44.990  -9.441 -34.719  0.00  0.00    +0.000 NA
ATOM     16  C   UNL     1     -44.657 -10.743 -34.991  0.00  0.00    +0.000 A 
ATOM     17  N   UNL     1     -44.858 -11.720 -34.056  0.00  0.00    +0.000 NA
ATOM     18  C   UNL     1     -45.389 -11.360 -32.863  0.00  0.00    +0.000 A 
ATOM     19  N   UNL     1     -45.710 -12.178 -31.854  0.00  0.00    +0.000 N 
ATOM     20  C   UNL     1     -46.256 -11.324 -30.947  0.00  0.00    +0.000 A 
ATOM     21  N   UNL     1     -46.289 -10.028 -31.360  0.00  0.00    +0.000 NA
ATOM     22  C   UNL     1     -45.721 -10.085 -32.572  0.00  0.00    +0.000 A 
ATOM     23  H   UNL     1     -45.581 -13.152 -31.785  0.00  0.00    +0.000 HD
ENDROOT
BRANCH   1  27
ATOM     24  C   UNL     1     -43.349  -1.391 -32.526  0.00  0.00    +0.000 A 
ATOM     25  C   UNL     1     -43.103  -2.716 -32.898  0.00  0.00    +0.000 A 
ATOM     26  C   UNL     1     -44.015  -3.723 -32.568  0.00  0.00    +0.000 A 
ATOM     27  C   UNL     1     -45.187  -3.410 -31.864  0.00  0.00    +0.000 A 
ATOM     28  C   UNL     1     -45.432  -2.087 -31.487  0.00  0.00    +0.000 A 
ATOM     29  C   UNL     1     -44.519  -1.080 -31.816  0.00  0.00    +0.000 A 
BRANCH  24  31
ATOM     30  C   UNL     1     -41.187  -0.240 -32.181  0.00  0.00    +0.000 C 
ATOM     31  O   UNL     1     -42.418  -0.408 -32.871  0.00  0.00    +0.000 OA
ENDBRANCH  24  31
ENDBRANCH   1  27
TORSDOF 2
ENDMDL
MODEL 2
REMARK VINA RESULT:      -6.7      3.822      7.588
REMARK  Name = ZINC000031807936
REMARK  2 active torsions:
REMARK  status: ('A' for Active; 'I' for Inactive)
REMARK    1  A    between atoms: C_1  and  C_27
REMARK    2  A    between atoms: C_24  and  O_31
REMARK                            x       y       z     vdW  Elec       q    Type
REMARK                         _______ _______ _______ _____ _____    ______ ____
ROOT
ATOM      1  C   UNL     1     -45.492  -6.271 -28.144  0.00  0.00    +0.000 C 
ATOM      2  S   UNL     1     -46.944  -5.194 -28.356  0.00  0.00    +0.000 S 
ATOM      3  C   UNL     1     -47.325  -5.866 -29.990  0.00  0.00    +0.000 C 
ATOM      4  C   UNL     1     -46.680  -5.037 -31.036  0.00  0.00    +0.000 C 
ATOM      5  O   UNL     1     -47.412  -4.462 -31.881  0.00  0.00    +0.000 OA
ATOM      6  N   UNL     1     -45.261  -4.894 -31.141  0.00  0.00    +0.000 N 
ATOM      7  C   UNL     1     -44.212  -5.337 -30.264  0.00  0.00    +0.000 A 
ATOM      8  C   UNL     1     -44.307  -5.932 -29.006  0.00  0.00    +0.000 A 
ATOM      9  C   UNL     1     -42.992  -6.204 -28.668  0.00  0.00    +0.000 A 
ATOM     10  C   UNL     1     -42.524  -6.860 -27.416  0.00  0.00    +0.000 C 
ATOM     11  N   UNL     1     -42.163  -5.800 -29.646  0.00  0.00    +0.000 NA
ATOM     12  N   UNL     1     -42.903  -5.259 -30.600  0.00  0.00    +0.000 N 
ATOM     13  H   UNL     1     -44.953  -4.415 -31.944  0.00  0.00    +0.000 HD
ATOM     14  C   UNL     1     -42.341  -4.747 -31.816  0.00  0.00    +0.000 A 
ATOM     15  N   UNL     1     -41.307  -5.402 -32.424  0.00  0.00    +0.000 NA
ATOM     16  C   UNL     1     -40.728  -4.923 -33.570  0.00  0.00    +0.000 A 
ATOM     17  N   UNL     1     -41.164  -3.755 -34.132  0.00  0.00    +0.000 NA
ATOM     18  C   UNL     1     -42.179  -3.097 -33.523  0.00  0.00    +0.000 A 
ATOM     19  N   UNL     1     -42.698  -1.918 -33.889  0.00  0.00    +0.000 N 
ATOM     20  C   UNL     1     -43.622  -1.691 -32.916  0.00  0.00    +0.000 A 
ATOM     21  N   UNL     1     -43.685  -2.671 -31.974  0.00  0.00    +0.000 NA
ATOM     22  C   UNL     1     -42.766  -3.551 -32.396  0.00  0.00    +0.000 A 
ATOM     23  H   UNL     1     -42.469  -1.358 -34.666  0.00  0.00    +0.000 HD
ENDROOT
BRANCH   1  27
ATOM     24  C   UNL     1     -46.496 -10.462 -27.979  0.00  0.00    +0.000 A 
ATOM     25  C   UNL     1     -45.699  -9.979 -29.021  0.00  0.00    +0.000 A 
ATOM     26  C   UNL     1     -45.364  -8.623 -29.083  0.00  0.00    +0.000 A 
ATOM     27  C   UNL     1     -45.823  -7.736 -28.098  0.00  0.00    +0.000 A 
ATOM     28  C   UNL     1     -46.625  -8.217 -27.059  0.00  0.00    +0.000 A 
ATOM     29  C   UNL     1     -46.960  -9.573 -26.997  0.00  0.00    +0.000 A 
BRANCH  24  31
ATOM     30  C   UNL     1     -47.080 -12.579 -29.118  0.00  0.00    +0.000 C 
ATOM     31  O   UNL     1     -46.813 -11.823 -27.945  0.00  0.00    +0.000 OA
ENDBRANCH  24  31
ENDBRANCH   1  27
TORSDOF 2
ENDMDL
MODEL 3
REMARK VINA RESULT:      -6.5      9.769     13.655
REMARK  Name = ZINC000031807936
REMARK  2 active torsions:
REMARK  status: ('A' for Active; 'I' for Inactive)
REMARK    1  A    between atoms: C_1  and  C_27
REMARK    2  A    between atoms: C_24  and  O_31
REMARK                            x       y       z     vdW  Elec       q    Type
REMARK                         _______ _______ _______ _____ _____    ______ ____
ROOT
ATOM      1  C   UNL     1     -43.427 -15.857 -25.785  0.00  0.00    +0.000 C 
ATOM      2  S   UNL     1     -43.190 -17.617 -26.185  0.00  0.00    +0.000 S 
ATOM      3  C   UNL     1     -44.965 -17.957 -26.181  0.00  0.00    +0.000 C 
ATOM      4  C   UNL     1     -45.384 -18.420 -24.836  0.00  0.00    +0.000 C 
ATOM      5  O   UNL     1     -45.881 -19.569 -24.727  0.00  0.00    +0.000 OA
ATOM      6  N   UNL     1     -45.277 -17.600 -23.670  0.00  0.00    +0.000 N 
ATOM      7  C   UNL     1     -44.656 -16.316 -23.486  0.00  0.00    +0.000 A 
ATOM      8  C   UNL     1     -43.889 -15.572 -24.382  0.00  0.00    +0.000 A 
ATOM      9  C   UNL     1     -43.621 -14.400 -23.695  0.00  0.00    +0.000 A 
ATOM     10  C   UNL     1     -42.840 -13.240 -24.206  0.00  0.00    +0.000 C 
ATOM     11  N   UNL     1     -44.181 -14.434 -22.473  0.00  0.00    +0.000 NA
ATOM     12  N   UNL     1     -44.790 -15.602 -22.345  0.00  0.00    +0.000 N 
ATOM     13  H   UNL     1     -45.694 -17.976 -22.861  0.00  0.00    +0.000 HD
ATOM     14  C   UNL     1     -45.523 -15.965 -21.165  0.00  0.00    +0.000 A 
ATOM     15  N   UNL     1     -46.285 -15.034 -20.517  0.00  0.00    +0.000 NA
ATOM     16  C   UNL     1     -46.973 -15.341 -19.372  0.00  0.00    +0.000 A 
ATOM     17  N   UNL     1     -46.900 -16.596 -18.835  0.00  0.00    +0.000 NA
ATOM     18  C   UNL     1     -46.133 -17.516 -19.467  0.00  0.00    +0.000 A 
ATOM     19  N   UNL     1     -45.895 -18.769 -19.063  0.00  0.00    +0.000 N 
ATOM     20  C   UNL     1     -45.027 -19.222 -20.008  0.00  0.00    +0.000 A 
ATOM     21  N   UNL     1     -44.723 -18.302 -20.964  0.00  0.00    +0.000 NA
ATOM     22  C   UNL     1     -45.450 -17.237 -20.597  0.00  0.00    +0.000 A 
ATOM     23  H   UNL     1     -46.257 -19.243 -18.279  0.00  0.00    +0.000 HD
ENDROOT
BRANCH   1  27
ATOM     24  C   UNL     1     -45.505 -13.680 -28.874  0.00  0.00    +0.000 A 
ATOM     25  C   UNL     1     -46.034 -13.725 -27.580  0.00  0.00    +0.000 A 
ATOM     26  C   UNL     1     -45.367 -14.425 -26.570  0.00  0.00    +0.000 A 
ATOM     27  C   UNL     1     -44.160 -15.085 -26.846  0.00  0.00    +0.000 A 
ATOM     28  C   UNL     1     -43.634 -15.045 -28.140  0.00  0.00    +0.000 A 
ATOM     29  C   UNL     1     -44.301 -14.346 -29.150  0.00  0.00    +0.000 A 
BRANCH  24  31
ATOM     30  C   UNL     1     -47.006 -11.842 -29.571  0.00  0.00    +0.000 C 
ATOM     31  O   UNL     1     -46.195 -12.972 -29.861  0.00  0.00    +0.000 OA
ENDBRANCH  24  31
ENDBRANCH   1  27
TORSDOF 2
ENDMDL
