MODEL 1
REMARK VINA RESULT:      -7.3      0.000      0.000
REMARK  Name = ZINC000012772569 CSC027018696 MCULE-2308435649 MolPort-005-665-378
REMARK  4 active torsions:
REMARK  status: ('A' for Active; 'I' for Inactive)
REMARK    1  A    between atoms: C_1  and  C_19
REMARK    2  A    between atoms: N_18  and  C_23
REMARK    3  A    between atoms: C_22  and  O_32
REMARK    4  A    between atoms: C_25  and  N_28
REMARK                            x       y       z     vdW  Elec       q    Type
REMARK                         _______ _______ _______ _____ _____    ______ ____
ROOT
ATOM      1  C   UNL     1     -45.999  -7.474 -27.056  0.00  0.00    +0.000 A 
ATOM      2  C   UNL     1     -46.571  -7.127 -28.288  0.00  0.00    +0.000 A 
ATOM      3  C   UNL     1     -45.800  -6.509 -29.277  0.00  0.00    +0.000 A 
ATOM      4  C   UNL     1     -44.445  -6.224 -29.038  0.00  0.00    +0.000 A 
ATOM      5  C   UNL     1     -43.704  -5.603 -30.052  0.00  0.00    +0.000 A 
ATOM      6  N   UNL     1     -44.307  -5.292 -31.242  0.00  0.00    +0.000 N 
ATOM      7  C   UNL     1     -45.630  -5.589 -31.449  0.00  0.00    +0.000 A 
ATOM      8  N   UNL     1     -46.358  -6.185 -30.468  0.00  0.00    +0.000 NA
ATOM      9  C   UNL     1     -46.316  -5.247 -32.738  0.00  0.00    +0.000 C 
ATOM     10  C   UNL     1     -46.881  -3.832 -32.707  0.00  0.00    +0.000 C 
ATOM     11  C   UNL     1     -45.827  -2.795 -33.073  0.00  0.00    +0.000 C 
ATOM     12  C   UNL     1     -44.921  -2.507 -31.885  0.00  0.00    +0.000 C 
ATOM     13  C   UNL     1     -43.527  -3.101 -32.079  0.00  0.00    +0.000 C 
ATOM     14  C   UNL     1     -43.542  -4.615 -32.292  0.00  0.00    +0.000 C 
ATOM     15  O   UNL     1     -42.484  -5.331 -29.866  0.00  0.00    +0.000 OA
ATOM     16  C   UNL     1     -43.875  -6.557 -27.801  0.00  0.00    +0.000 A 
ATOM     17  C   UNL     1     -44.650  -7.175 -26.817  0.00  0.00    +0.000 A 
ENDROOT
BRANCH   1  19
ATOM     18  N   UNL     1     -47.756  -7.361 -25.213  0.00  0.00    +0.000 N 
ATOM     19  C   UNL     1     -46.829  -8.109 -26.011  0.00  0.00    +0.000 C 
ATOM     20  O   UNL     1     -46.762  -9.356 -25.844  0.00  0.00    +0.000 OA
ATOM     21  H   UNL     1     -48.614  -7.792 -24.998  0.00  0.00    +0.000 HD
BRANCH  18  23
ATOM     22  C   UNL     1     -47.291  -5.862 -23.328  0.00  0.00    +0.000 A 
ATOM     23  C   UNL     1     -47.545  -6.038 -24.697  0.00  0.00    +0.000 A 
ATOM     24  C   UNL     1     -47.531  -4.926 -25.553  0.00  0.00    +0.000 A 
ATOM     25  C   UNL     1     -47.298  -3.638 -25.055  0.00  0.00    +0.000 A 
ATOM     26  C   UNL     1     -47.060  -3.468 -23.686  0.00  0.00    +0.000 A 
ATOM     27  C   UNL     1     -47.053  -4.571 -22.829  0.00  0.00    +0.000 A 
BRANCH  25  28
ATOM     28  N   UNL     1     -47.304  -2.512 -25.941  0.00  0.00    +0.000 N 
ATOM     29  O   UNL     1     -47.266  -2.700 -27.304  0.00  0.00    +0.000 OA
ATOM     30  O   UNL     1     -47.351  -1.349 -25.490  0.00  0.00    +0.000 OA
ENDBRANCH  25  28
BRANCH  22  32
ATOM     31  C   UNL     1     -47.752  -6.932 -21.143  0.00  0.00    +0.000 C 
ATOM     32  O   UNL     1     -47.281  -6.977 -22.483  0.00  0.00    +0.000 OA
ENDBRANCH  22  32
ENDBRANCH  18  23
ENDBRANCH   1  19
TORSDOF 4
ENDMDL
MODEL 2
REMARK VINA RESULT:      -6.7      3.574      7.206
REMARK  Name = ZINC000012772569 CSC027018696 MCULE-2308435649 MolPort-005-665-378
REMARK  4 active torsions:
REMARK  status: ('A' for Active; 'I' for Inactive)
REMARK    1  A    between atoms: C_1  and  C_19
REMARK    2  A    between atoms: N_18  and  C_23
REMARK    3  A    between atoms: C_22  and  O_32
REMARK    4  A    between atoms: C_25  and  N_28
REMARK                            x       y       z     vdW  Elec       q    Type
REMARK                         _______ _______ _______ _____ _____    ______ ____
ROOT
ATOM      1  C   UNL     1     -46.307  -5.982 -28.607  0.00  0.00    +0.000 A 
ATOM      2  C   UNL     1     -46.923  -7.237 -28.498  0.00  0.00    +0.000 A 
ATOM      3  C   UNL     1     -46.154  -8.389 -28.310  0.00  0.00    +0.000 A 
ATOM      4  C   UNL     1     -44.753  -8.297 -28.238  0.00  0.00    +0.000 A 
ATOM      5  C   UNL     1     -44.015  -9.473 -28.051  0.00  0.00    +0.000 A 
ATOM      6  N   UNL     1     -44.665 -10.674 -27.941  0.00  0.00    +0.000 N 
ATOM      7  C   UNL     1     -46.034 -10.732 -28.009  0.00  0.00    +0.000 A 
ATOM      8  N   UNL     1     -46.757  -9.596 -28.197  0.00  0.00    +0.000 NA
ATOM      9  C   UNL     1     -46.768 -12.036 -27.905  0.00  0.00    +0.000 C 
ATOM     10  C   UNL     1     -46.906 -12.703 -29.267  0.00  0.00    +0.000 C 
ATOM     11  C   UNL     1     -45.666 -13.511 -29.629  0.00  0.00    +0.000 C 
ATOM     12  C   UNL     1     -44.561 -12.597 -30.140  0.00  0.00    +0.000 C 
ATOM     13  C   UNL     1     -43.428 -12.456 -29.126  0.00  0.00    +0.000 C 
ATOM     14  C   UNL     1     -43.894 -11.908 -27.776  0.00  0.00    +0.000 C 
ATOM     15  O   UNL     1     -42.754  -9.423 -27.984  0.00  0.00    +0.000 OA
ATOM     16  C   UNL     1     -44.134  -7.045 -28.361  0.00  0.00    +0.000 A 
ATOM     17  C   UNL     1     -44.908  -5.897 -28.548  0.00  0.00    +0.000 A 
ENDROOT
BRANCH   1  19
ATOM     18  N   UNL     1     -47.286  -4.180 -30.121  0.00  0.00    +0.000 N 
ATOM     19  C   UNL     1     -47.129  -4.773 -28.824  0.00  0.00    +0.000 C 
ATOM     20  O   UNL     1     -47.756  -4.272 -27.853  0.00  0.00    +0.000 OA
ATOM     21  H   UNL     1     -48.175  -3.824 -30.347  0.00  0.00    +0.000 HD
BRANCH  18  23
ATOM     22  C   UNL     1     -46.139  -5.045 -32.109  0.00  0.00    +0.000 A 
ATOM     23  C   UNL     1     -46.261  -4.058 -31.118  0.00  0.00    +0.000 A 
ATOM     24  C   UNL     1     -45.418  -2.936 -31.150  0.00  0.00    +0.000 A 
ATOM     25  C   UNL     1     -44.436  -2.803 -32.139  0.00  0.00    +0.000 A 
ATOM     26  C   UNL     1     -44.310  -3.799 -33.116  0.00  0.00    +0.000 A 
ATOM     27  C   UNL     1     -45.156  -4.909 -33.103  0.00  0.00    +0.000 A 
BRANCH  25  28
ATOM     28  N   UNL     1     -43.572  -1.659 -32.147  0.00  0.00    +0.000 N 
ATOM     29  O   UNL     1     -44.100  -0.391 -32.235  0.00  0.00    +0.000 OA
ATOM     30  O   UNL     1     -42.335  -1.797 -32.066  0.00  0.00    +0.000 OA
ENDBRANCH  25  28
BRANCH  22  32
ATOM     31  C   UNL     1     -46.534  -7.488 -32.186  0.00  0.00    +0.000 C 
ATOM     32  O   UNL     1     -46.999  -6.149 -32.086  0.00  0.00    +0.000 OA
ENDBRANCH  22  32
ENDBRANCH  18  23
ENDBRANCH   1  19
TORSDOF 4
ENDMDL
MODEL 3
REMARK VINA RESULT:      -6.7     11.333     15.292
REMARK  Name = ZINC000012772569 CSC027018696 MCULE-2308435649 MolPort-005-665-378
REMARK  4 active torsions:
REMARK  status: ('A' for Active; 'I' for Inactive)
REMARK    1  A    between atoms: C_1  and  C_19
REMARK    2  A    between atoms: N_18  and  C_23
REMARK    3  A    between atoms: C_22  and  O_32
REMARK    4  A    between atoms: C_25  and  N_28
REMARK                            x       y       z     vdW  Elec       q    Type
REMARK                         _______ _______ _______ _____ _____    ______ ____
ROOT
ATOM      1  C   UNL     1     -44.977 -18.810 -23.588  0.00  0.00    +0.000 A 
ATOM      2  C   UNL     1     -43.879 -19.549 -23.124  0.00  0.00    +0.000 A 
ATOM      3  C   UNL     1     -43.533 -19.527 -21.770  0.00  0.00    +0.000 A 
ATOM      4  C   UNL     1     -44.281 -18.753 -20.864  0.00  0.00    +0.000 A 
ATOM      5  C   UNL     1     -43.903 -18.754 -19.515  0.00  0.00    +0.000 A 
ATOM      6  N   UNL     1     -42.828 -19.500 -19.110  0.00  0.00    +0.000 N 
ATOM      7  C   UNL     1     -42.121 -20.250 -20.016  0.00  0.00    +0.000 A 
ATOM      8  N   UNL     1     -42.477 -20.250 -21.328  0.00  0.00    +0.000 NA
ATOM      9  C   UNL     1     -40.933 -21.065 -19.599  0.00  0.00    +0.000 C 
ATOM     10  C   UNL     1     -39.654 -20.238 -19.639  0.00  0.00    +0.000 C 
ATOM     11  C   UNL     1     -39.461 -19.432 -18.361  0.00  0.00    +0.000 C 
ATOM     12  C   UNL     1     -40.324 -18.179 -18.382  0.00  0.00    +0.000 C 
ATOM     13  C   UNL     1     -41.501 -18.284 -17.415  0.00  0.00    +0.000 C 
ATOM     14  C   UNL     1     -42.413 -19.477 -17.705  0.00  0.00    +0.000 C 
ATOM     15  O   UNL     1     -44.553 -18.067 -18.678  0.00  0.00    +0.000 OA
ATOM     16  C   UNL     1     -45.369 -18.003 -21.329  0.00  0.00    +0.000 A 
ATOM     17  C   UNL     1     -45.711 -18.030 -22.684  0.00  0.00    +0.000 A 
ENDROOT
BRANCH   1  19
ATOM     18  N   UNL     1     -44.700 -17.945 -25.970  0.00  0.00    +0.000 N 
ATOM     19  C   UNL     1     -45.322 -18.827 -25.025  0.00  0.00    +0.000 C 
ATOM     20  O   UNL     1     -46.152 -19.675 -25.450  0.00  0.00    +0.000 OA
ATOM     21  H   UNL     1     -44.492 -18.314 -26.858  0.00  0.00    +0.000 HD
BRANCH  18  23
ATOM     22  C   UNL     1     -43.014 -16.222 -25.520  0.00  0.00    +0.000 A 
ATOM     23  C   UNL     1     -44.356 -16.571 -25.736  0.00  0.00    +0.000 A 
ATOM     24  C   UNL     1     -45.336 -15.567 -25.779  0.00  0.00    +0.000 A 
ATOM     25  C   UNL     1     -44.997 -14.223 -25.578  0.00  0.00    +0.000 A 
ATOM     26  C   UNL     1     -43.658 -13.884 -25.348  0.00  0.00    +0.000 A 
ATOM     27  C   UNL     1     -42.674 -14.874 -25.322  0.00  0.00    +0.000 A 
BRANCH  25  28
ATOM     28  N   UNL     1     -46.012 -13.212 -25.607  0.00  0.00    +0.000 N 
ATOM     29  O   UNL     1     -46.817 -13.069 -26.715  0.00  0.00    +0.000 OA
ATOM     30  O   UNL     1     -46.184 -12.456 -24.630  0.00  0.00    +0.000 OA
ENDBRANCH  25  28
BRANCH  22  32
ATOM     31  C   UNL     1     -40.898 -17.202 -26.351  0.00  0.00    +0.000 C 
ATOM     32  O   UNL     1     -42.039 -17.225 -25.503  0.00  0.00    +0.000 OA
ENDBRANCH  22  32
ENDBRANCH  18  23
ENDBRANCH   1  19
TORSDOF 4
ENDMDL
