MODEL 1
REMARK VINA RESULT:      -8.1      0.000      0.000
REMARK  Name = ZINC000113940140 CSC048854728
REMARK  3 active torsions:
REMARK  status: ('A' for Active; 'I' for Inactive)
REMARK    1  A    between atoms: C_2  and  C_5
REMARK    2  A    between atoms: N_3  and  C_18
REMARK    3  A    between atoms: C_23  and  C_24
REMARK                            x       y       z     vdW  Elec       q    Type
REMARK                         _______ _______ _______ _____ _____    ______ ____
ROOT
ATOM      1  O   UNL     1     -47.415  -6.749 -30.617  0.00  0.00    +0.000 OA
ATOM      2  C   UNL     1     -46.418  -6.311 -29.982  0.00  0.00    +0.000 C 
ATOM      3  N   UNL     1     -45.129  -6.223 -30.600  0.00  0.00    +0.000 N 
ATOM      4  H   UNL     1     -44.393  -5.904 -30.028  0.00  0.00    +0.000 HD
ENDROOT
BRANCH   2   5
ATOM      5  C   UNL     1     -46.570  -5.872 -28.591  0.00  0.00    +0.000 A 
ATOM      6  C   UNL     1     -46.874  -4.569 -28.190  0.00  0.00    +0.000 A 
ATOM      7  C   UNL     1     -46.895  -4.673 -26.812  0.00  0.00    +0.000 A 
ATOM      8  C   UNL     1     -46.615  -5.972 -26.481  0.00  0.00    +0.000 A 
ATOM      9  O   UNL     1     -46.424  -6.682 -27.560  0.00  0.00    +0.000 OA
ATOM     10  C   UNL     1     -46.558  -6.408 -25.159  0.00  0.00    +0.000 A 
ATOM     11  C   UNL     1     -46.800  -5.464 -24.145  0.00  0.00    +0.000 A 
ATOM     12  C   UNL     1     -47.091  -4.122 -24.470  0.00  0.00    +0.000 A 
ATOM     13  C   UNL     1     -47.329  -3.191 -23.457  0.00  0.00    +0.000 A 
ATOM     14  C   UNL     1     -47.617  -1.861 -23.783  0.00  0.00    +0.000 A 
ATOM     15  C   UNL     1     -47.667  -1.456 -25.122  0.00  0.00    +0.000 A 
ATOM     16  C   UNL     1     -47.429  -2.377 -26.146  0.00  0.00    +0.000 A 
ATOM     17  C   UNL     1     -47.141  -3.710 -25.829  0.00  0.00    +0.000 A 
ENDBRANCH   2   5
BRANCH   3  18
ATOM     18  C   UNL     1     -44.785  -6.544 -31.958  0.00  0.00    +0.000 A 
ATOM     19  C   UNL     1     -44.332  -7.826 -32.302  0.00  0.00    +0.000 A 
ATOM     20  C   UNL     1     -43.944  -8.119 -33.610  0.00  0.00    +0.000 A 
ATOM     21  C   UNL     1     -43.997  -7.127 -34.590  0.00  0.00    +0.000 A 
ATOM     22  C   UNL     1     -44.446  -5.846 -34.262  0.00  0.00    +0.000 A 
ATOM     23  C   UNL     1     -44.858  -5.545 -32.956  0.00  0.00    +0.000 A 
BRANCH  23  24
ATOM     24  C   UNL     1     -45.324  -4.171 -32.661  0.00  0.00    +0.000 C 
ATOM     25  O   UNL     1     -46.561  -3.961 -32.526  0.00  0.00    +0.000 OA
ATOM     26  N   UNL     1     -44.401  -3.081 -32.514  0.00  0.00    +0.000 N 
ATOM     27  C   UNL     1     -44.877  -1.705 -32.650  0.00  0.00    +0.000 C 
ATOM     28  C   UNL     1     -43.712  -0.806 -33.065  0.00  0.00    +0.000 C 
ATOM     29  O   UNL     1     -42.646  -0.958 -32.159  0.00  0.00    +0.000 OA
ATOM     30  C   UNL     1     -42.112  -2.240 -32.381  0.00  0.00    +0.000 C 
ATOM     31  C   UNL     1     -43.094  -3.305 -31.892  0.00  0.00    +0.000 C 
ENDBRANCH  23  24
ENDBRANCH   3  18
TORSDOF 3
ENDMDL
MODEL 2
REMARK VINA RESULT:      -7.9      0.934      1.935
REMARK  Name = ZINC000113940140 CSC048854728
REMARK  3 active torsions:
REMARK  status: ('A' for Active; 'I' for Inactive)
REMARK    1  A    between atoms: C_2  and  C_5
REMARK    2  A    between atoms: N_3  and  C_18
REMARK    3  A    between atoms: C_23  and  C_24
REMARK                            x       y       z     vdW  Elec       q    Type
REMARK                         _______ _______ _______ _____ _____    ______ ____
ROOT
ATOM      1  O   UNL     1     -47.598  -6.400 -30.015  0.00  0.00    +0.000 OA
ATOM      2  C   UNL     1     -46.663  -5.688 -29.560  0.00  0.00    +0.000 C 
ATOM      3  N   UNL     1     -45.446  -5.508 -30.294  0.00  0.00    +0.000 N 
ATOM      4  H   UNL     1     -44.750  -4.967 -29.857  0.00  0.00    +0.000 HD
ENDROOT
BRANCH   2   5
ATOM      5  C   UNL     1     -46.815  -5.018 -28.264  0.00  0.00    +0.000 A 
ATOM      6  C   UNL     1     -46.680  -5.639 -27.020  0.00  0.00    +0.000 A 
ATOM      7  C   UNL     1     -46.922  -4.604 -26.137  0.00  0.00    +0.000 A 
ATOM      8  C   UNL     1     -47.177  -3.475 -26.868  0.00  0.00    +0.000 A 
ATOM      9  O   UNL     1     -47.108  -3.737 -28.145  0.00  0.00    +0.000 OA
ATOM     10  C   UNL     1     -47.463  -2.249 -26.270  0.00  0.00    +0.000 A 
ATOM     11  C   UNL     1     -47.485  -2.193 -24.865  0.00  0.00    +0.000 A 
ATOM     12  C   UNL     1     -47.224  -3.348 -24.098  0.00  0.00    +0.000 A 
ATOM     13  C   UNL     1     -47.248  -3.284 -22.703  0.00  0.00    +0.000 A 
ATOM     14  C   UNL     1     -46.988  -4.431 -21.945  0.00  0.00    +0.000 A 
ATOM     15  C   UNL     1     -46.704  -5.647 -22.578  0.00  0.00    +0.000 A 
ATOM     16  C   UNL     1     -46.676  -5.726 -23.974  0.00  0.00    +0.000 A 
ATOM     17  C   UNL     1     -46.935  -4.583 -24.739  0.00  0.00    +0.000 A 
ENDBRANCH   2   5
BRANCH   3  18
ATOM     18  C   UNL     1     -45.124  -6.024 -31.596  0.00  0.00    +0.000 A 
ATOM     19  C   UNL     1     -44.817  -7.381 -31.777  0.00  0.00    +0.000 A 
ATOM     20  C   UNL     1     -44.449  -7.869 -33.032  0.00  0.00    +0.000 A 
ATOM     21  C   UNL     1     -44.376  -7.001 -34.121  0.00  0.00    +0.000 A 
ATOM     22  C   UNL     1     -44.681  -5.648 -33.957  0.00  0.00    +0.000 A 
ATOM     23  C   UNL     1     -45.071  -5.149 -32.705  0.00  0.00    +0.000 A 
BRANCH  23  24
ATOM     24  C   UNL     1     -45.381  -3.706 -32.585  0.00  0.00    +0.000 C 
ATOM     25  O   UNL     1     -46.588  -3.344 -32.518  0.00  0.00    +0.000 OA
ATOM     26  N   UNL     1     -44.341  -2.717 -32.530  0.00  0.00    +0.000 N 
ATOM     27  C   UNL     1     -44.651  -1.322 -32.838  0.00  0.00    +0.000 C 
ATOM     28  C   UNL     1     -43.381  -0.615 -33.312  0.00  0.00    +0.000 C 
ATOM     29  O   UNL     1     -42.360  -0.779 -32.358  0.00  0.00    +0.000 OA
ATOM     30  C   UNL     1     -41.974  -2.130 -32.415  0.00  0.00    +0.000 C 
ATOM     31  C   UNL     1     -43.083  -3.013 -31.843  0.00  0.00    +0.000 C 
ENDBRANCH  23  24
ENDBRANCH   3  18
TORSDOF 3
ENDMDL
MODEL 3
REMARK VINA RESULT:      -7.2      9.335     12.032
REMARK  Name = ZINC000113940140 CSC048854728
REMARK  3 active torsions:
REMARK  status: ('A' for Active; 'I' for Inactive)
REMARK    1  A    between atoms: C_2  and  C_5
REMARK    2  A    between atoms: N_3  and  C_18
REMARK    3  A    between atoms: C_23  and  C_24
REMARK                            x       y       z     vdW  Elec       q    Type
REMARK                         _______ _______ _______ _____ _____    ______ ____
ROOT
ATOM      1  O   UNL     1     -45.617 -12.211 -24.925  0.00  0.00    +0.000 OA
ATOM      2  C   UNL     1     -45.878 -13.444 -24.912  0.00  0.00    +0.000 C 
ATOM      3  N   UNL     1     -46.118 -14.161 -26.128  0.00  0.00    +0.000 N 
ATOM      4  H   UNL     1     -46.351 -15.113 -26.033  0.00  0.00    +0.000 HD
ENDROOT
BRANCH   2   5
ATOM      5  C   UNL     1     -45.931 -14.168 -23.638  0.00  0.00    +0.000 A 
ATOM      6  C   UNL     1     -45.475 -15.473 -23.438  0.00  0.00    +0.000 A 
ATOM      7  C   UNL     1     -45.753 -15.691 -22.102  0.00  0.00    +0.000 A 
ATOM      8  C   UNL     1     -46.334 -14.556 -21.601  0.00  0.00    +0.000 A 
ATOM      9  O   UNL     1     -46.434 -13.649 -22.534  0.00  0.00    +0.000 OA
ATOM     10  C   UNL     1     -46.740 -14.452 -20.271  0.00  0.00    +0.000 A 
ATOM     11  C   UNL     1     -46.534 -15.562 -19.434  0.00  0.00    +0.000 A 
ATOM     12  C   UNL     1     -45.936 -16.738 -19.934  0.00  0.00    +0.000 A 
ATOM     13  C   UNL     1     -45.736 -17.836 -19.096  0.00  0.00    +0.000 A 
ATOM     14  C   UNL     1     -45.142 -19.000 -19.596  0.00  0.00    +0.000 A 
ATOM     15  C   UNL     1     -44.747 -19.072 -20.937  0.00  0.00    +0.000 A 
ATOM     16  C   UNL     1     -44.941 -17.980 -21.789  0.00  0.00    +0.000 A 
ATOM     17  C   UNL     1     -45.534 -16.812 -21.296  0.00  0.00    +0.000 A 
ENDBRANCH   2   5
BRANCH   3  18
ATOM     18  C   UNL     1     -46.056 -13.654 -27.471  0.00  0.00    +0.000 A 
ATOM     19  C   UNL     1     -47.125 -12.930 -28.018  0.00  0.00    +0.000 A 
ATOM     20  C   UNL     1     -47.086 -12.487 -29.341  0.00  0.00    +0.000 A 
ATOM     21  C   UNL     1     -45.977 -12.773 -30.137  0.00  0.00    +0.000 A 
ATOM     22  C   UNL     1     -44.904 -13.493 -29.607  0.00  0.00    +0.000 A 
ATOM     23  C   UNL     1     -44.923 -13.925 -28.272  0.00  0.00    +0.000 A 
BRANCH  23  24
ATOM     24  C   UNL     1     -43.760 -14.686 -27.760  0.00  0.00    +0.000 C 
ATOM     25  O   UNL     1     -43.540 -15.843 -28.212  0.00  0.00    +0.000 OA
ATOM     26  N   UNL     1     -42.875 -14.131 -26.774  0.00  0.00    +0.000 N 
ATOM     27  C   UNL     1     -42.020 -15.018 -25.987  0.00  0.00    +0.000 C 
ATOM     28  C   UNL     1     -41.667 -14.336 -24.665  0.00  0.00    +0.000 C 
ATOM     29  O   UNL     1     -41.104 -13.071 -24.916  0.00  0.00    +0.000 OA
ATOM     30  C   UNL     1     -42.150 -12.256 -25.388  0.00  0.00    +0.000 C 
ATOM     31  C   UNL     1     -42.563 -12.700 -26.791  0.00  0.00    +0.000 C 
ENDBRANCH  23  24
ENDBRANCH   3  18
TORSDOF 3
ENDMDL
