MODEL 1
REMARK VINA RESULT:      -6.0      0.000      0.000
REMARK  Name = ZINC000003831423 ZINC03831423 PubChem-7048776
REMARK  9 active torsions:
REMARK  status: ('A' for Active; 'I' for Inactive)
REMARK    1  A    between atoms: N_9  and  C_20
REMARK    2  A    between atoms: C_20  and  C_21
REMARK    3  A    between atoms: C_21  and  O_22
REMARK    4  A    between atoms: C_21  and  C_24
REMARK    5  A    between atoms: C_24  and  O_25
REMARK    6  A    between atoms: C_24  and  C_27
REMARK    7  A    between atoms: C_27  and  O_28
REMARK    8  A    between atoms: C_27  and  C_30
REMARK    9  A    between atoms: C_30  and  O_31
REMARK                            x       y       z     vdW  Elec       q    Type
REMARK                         _______ _______ _______ _____ _____    ______ ____
ROOT
ATOM      1  C   UNL     1     -46.960  -4.158 -23.801  0.00  0.00    +0.000 C 
ATOM      2  C   UNL     1     -46.977  -4.582 -25.230  0.00  0.00    +0.000 A 
ATOM      3  C   UNL     1     -46.669  -5.909 -25.540  0.00  0.00    +0.000 A 
ATOM      4  C   UNL     1     -46.673  -6.351 -26.865  0.00  0.00    +0.000 A 
ATOM      5  C   UNL     1     -46.994  -5.448 -27.915  0.00  0.00    +0.000 A 
ATOM      6  C   UNL     1     -47.300  -4.116 -27.589  0.00  0.00    +0.000 A 
ATOM      7  C   UNL     1     -47.294  -3.681 -26.261  0.00  0.00    +0.000 A 
ATOM      8  C   UNL     1     -47.629  -2.255 -25.976  0.00  0.00    +0.000 C 
ATOM      9  N   UNL     1     -47.002  -5.879 -29.221  0.00  0.00    +0.000 N 
ATOM     10  C   UNL     1     -46.695  -7.178 -29.509  0.00  0.00    +0.000 A 
ATOM     11  N   UNL     1     -46.683  -7.648 -30.784  0.00  0.00    +0.000 NA
ATOM     12  C   UNL     1     -46.376  -8.946 -31.048  0.00  0.00    +0.000 A 
ATOM     13  O   UNL     1     -46.373  -9.355 -32.238  0.00  0.00    +0.000 OA
ATOM     14  N   UNL     1     -46.071  -9.808 -30.039  0.00  0.00    +0.000 N 
ATOM     15  C   UNL     1     -46.058  -9.420 -28.736  0.00  0.00    +0.000 A 
ATOM     16  O   UNL     1     -45.769 -10.254 -27.837  0.00  0.00    +0.000 OA
ATOM     17  C   UNL     1     -46.365  -8.100 -28.411  0.00  0.00    +0.000 A 
ATOM     18  N   UNL     1     -46.369  -7.645 -27.136  0.00  0.00    +0.000 NA
ATOM     19  H   UNL     1     -45.853 -10.742 -30.259  0.00  0.00    +0.000 HD
ENDROOT
BRANCH   9  20
ATOM     20  C   UNL     1     -47.346  -4.963 -30.312  0.00  0.00    +0.000 C 
BRANCH  20  21
ATOM     21  C   UNL     1     -46.108  -4.226 -30.804  0.00  0.00    +0.000 C 
BRANCH  21  22
ATOM     22  O   UNL     1     -46.304  -2.844 -30.728  0.00  0.00    +0.000 OA
ATOM     23  H   UNL     1     -46.941  -2.570 -31.407  0.00  0.00    +0.000 HD
ENDBRANCH  21  22
BRANCH  21  24
ATOM     24  C   UNL     1     -45.775  -4.646 -32.235  0.00  0.00    +0.000 C 
BRANCH  24  25
ATOM     25  O   UNL     1     -44.797  -5.645 -32.228  0.00  0.00    +0.000 OA
ATOM     26  H   UNL     1     -45.182  -6.473 -31.900  0.00  0.00    +0.000 HD
ENDBRANCH  24  25
BRANCH  24  27
ATOM     27  C   UNL     1     -47.021  -5.131 -32.971  0.00  0.00    +0.000 C 
BRANCH  27  28
ATOM     28  O   UNL     1     -46.814  -6.425 -33.454  0.00  0.00    +0.000 OA
ATOM     29  H   UNL     1     -46.737  -6.401 -34.420  0.00  0.00    +0.000 HD
ENDBRANCH  27  28
BRANCH  27  30
ATOM     30  C   UNL     1     -47.339  -4.209 -34.138  0.00  0.00    +0.000 C 
BRANCH  30  31
ATOM     31  O   UNL     1     -47.392  -2.887 -33.697  0.00  0.00    +0.000 OA
ATOM     32  H   UNL     1     -48.310  -2.572 -33.729  0.00  0.00    +0.000 HD
ENDBRANCH  30  31
ENDBRANCH  27  30
ENDBRANCH  24  27
ENDBRANCH  21  24
ENDBRANCH  20  21
ENDBRANCH   9  20
TORSDOF 9
ENDMDL
MODEL 2
REMARK VINA RESULT:      -5.9      1.470      1.935
REMARK  Name = ZINC000003831423 ZINC03831423 PubChem-7048776
REMARK  9 active torsions:
REMARK  status: ('A' for Active; 'I' for Inactive)
REMARK    1  A    between atoms: N_9  and  C_20
REMARK    2  A    between atoms: C_20  and  C_21
REMARK    3  A    between atoms: C_21  and  O_22
REMARK    4  A    between atoms: C_21  and  C_24
REMARK    5  A    between atoms: C_24  and  O_25
REMARK    6  A    between atoms: C_24  and  C_27
REMARK    7  A    between atoms: C_27  and  O_28
REMARK    8  A    between atoms: C_27  and  C_30
REMARK    9  A    between atoms: C_30  and  O_31
REMARK                            x       y       z     vdW  Elec       q    Type
REMARK                         _______ _______ _______ _____ _____    ______ ____
ROOT
ATOM      1  C   UNL     1     -46.747  -5.250 -24.357  0.00  0.00    +0.000 C 
ATOM      2  C   UNL     1     -46.841  -5.335 -25.842  0.00  0.00    +0.000 A 
ATOM      3  C   UNL     1     -46.606  -6.566 -26.460  0.00  0.00    +0.000 A 
ATOM      4  C   UNL     1     -46.683  -6.692 -27.849  0.00  0.00    +0.000 A 
ATOM      5  C   UNL     1     -47.004  -5.563 -28.649  0.00  0.00    +0.000 A 
ATOM      6  C   UNL     1     -47.236  -4.330 -28.014  0.00  0.00    +0.000 A 
ATOM      7  C   UNL     1     -47.157  -4.211 -26.625  0.00  0.00    +0.000 A 
ATOM      8  C   UNL     1     -47.415  -2.878 -26.007  0.00  0.00    +0.000 C 
ATOM      9  N   UNL     1     -47.084  -5.683 -30.017  0.00  0.00    +0.000 N 
ATOM     10  C   UNL     1     -46.848  -6.891 -30.607  0.00  0.00    +0.000 A 
ATOM     11  N   UNL     1     -46.909  -7.056 -31.955  0.00  0.00    +0.000 NA
ATOM     12  C   UNL     1     -46.672  -8.269 -32.522  0.00  0.00    +0.000 A 
ATOM     13  O   UNL     1     -46.735  -8.395 -33.772  0.00  0.00    +0.000 OA
ATOM     14  N   UNL     1     -46.367  -9.350 -31.751  0.00  0.00    +0.000 N 
ATOM     15  C   UNL     1     -46.284  -9.272 -30.396  0.00  0.00    +0.000 A 
ATOM     16  O   UNL     1     -45.997 -10.298 -29.725  0.00  0.00    +0.000 OA
ATOM     17  C   UNL     1     -46.517  -8.051 -29.765  0.00  0.00    +0.000 A 
ATOM     18  N   UNL     1     -46.449  -7.900 -28.421  0.00  0.00    +0.000 NA
ATOM     19  H   UNL     1     -46.200 -10.216 -32.188  0.00  0.00    +0.000 HD
ENDROOT
BRANCH   9  20
ATOM     20  C   UNL     1     -47.429  -4.529 -30.853  0.00  0.00    +0.000 C 
BRANCH  20  21
ATOM     21  C   UNL     1     -46.177  -3.755 -31.241  0.00  0.00    +0.000 C 
BRANCH  21  22
ATOM     22  O   UNL     1     -46.208  -2.472 -30.686  0.00  0.00    +0.000 OA
ATOM     23  H   UNL     1     -45.303  -2.183 -30.488  0.00  0.00    +0.000 HD
ENDBRANCH  21  22
BRANCH  21  24
ATOM     24  C   UNL     1     -46.050  -3.681 -32.762  0.00  0.00    +0.000 C 
BRANCH  24  25
ATOM     25  O   UNL     1     -46.942  -2.733 -33.274  0.00  0.00    +0.000 OA
ATOM     26  H   UNL     1     -47.590  -2.497 -32.593  0.00  0.00    +0.000 HD
ENDBRANCH  24  25
BRANCH  24  27
ATOM     27  C   UNL     1     -44.622  -3.342 -33.181  0.00  0.00    +0.000 C 
BRANCH  27  28
ATOM     28  O   UNL     1     -43.764  -3.465 -32.086  0.00  0.00    +0.000 OA
ATOM     29  H   UNL     1     -43.474  -4.387 -32.005  0.00  0.00    +0.000 HD
ENDBRANCH  27  28
BRANCH  27  30
ATOM     30  C   UNL     1     -44.550  -1.918 -33.713  0.00  0.00    +0.000 C 
BRANCH  30  31
ATOM     31  O   UNL     1     -44.537  -1.014 -32.652  0.00  0.00    +0.000 OA
ATOM     32  H   UNL     1     -43.694  -1.085 -32.177  0.00  0.00    +0.000 HD
ENDBRANCH  30  31
ENDBRANCH  27  30
ENDBRANCH  24  27
ENDBRANCH  21  24
ENDBRANCH  20  21
ENDBRANCH   9  20
TORSDOF 9
ENDMDL
MODEL 3
REMARK VINA RESULT:      -5.3     20.018     21.365
REMARK  Name = ZINC000003831423 ZINC03831423 PubChem-7048776
REMARK  9 active torsions:
REMARK  status: ('A' for Active; 'I' for Inactive)
REMARK    1  A    between atoms: N_9  and  C_20
REMARK    2  A    between atoms: C_20  and  C_21
REMARK    3  A    between atoms: C_21  and  O_22
REMARK    4  A    between atoms: C_21  and  C_24
REMARK    5  A    between atoms: C_24  and  O_25
REMARK    6  A    between atoms: C_24  and  C_27
REMARK    7  A    between atoms: C_27  and  O_28
REMARK    8  A    between atoms: C_27  and  C_30
REMARK    9  A    between atoms: C_30  and  O_31
REMARK                            x       y       z     vdW  Elec       q    Type
REMARK                         _______ _______ _______ _____ _____    ______ ____
ROOT
ATOM      1  C   UNL     1     -40.245  11.292 -19.555  0.00  0.00    +0.000 C 
ATOM      2  C   UNL     1     -40.345  11.967 -20.880  0.00  0.00    +0.000 A 
ATOM      3  C   UNL     1     -41.371  12.893 -21.086  0.00  0.00    +0.000 A 
ATOM      4  C   UNL     1     -41.502  13.549 -22.312  0.00  0.00    +0.000 A 
ATOM      5  C   UNL     1     -40.587  13.279 -23.365  0.00  0.00    +0.000 A 
ATOM      6  C   UNL     1     -39.562  12.344 -23.145  0.00  0.00    +0.000 A 
ATOM      7  C   UNL     1     -39.436  11.690 -21.917  0.00  0.00    +0.000 A 
ATOM      8  C   UNL     1     -38.327  10.709 -21.740  0.00  0.00    +0.000 C 
ATOM      9  N   UNL     1     -40.711  13.925 -24.573  0.00  0.00    +0.000 N 
ATOM     10  C   UNL     1     -41.720  14.825 -24.761  0.00  0.00    +0.000 A 
ATOM     11  N   UNL     1     -41.887  15.482 -25.939  0.00  0.00    +0.000 NA
ATOM     12  C   UNL     1     -42.898  16.376 -26.105  0.00  0.00    +0.000 A 
ATOM     13  O   UNL     1     -43.029  16.972 -27.205  0.00  0.00    +0.000 OA
ATOM     14  N   UNL     1     -43.772  16.634 -25.092  0.00  0.00    +0.000 N 
ATOM     15  C   UNL     1     -43.678  16.019 -23.883  0.00  0.00    +0.000 A 
ATOM     16  O   UNL     1     -44.510  16.289 -22.976  0.00  0.00    +0.000 OA
ATOM     17  C   UNL     1     -42.660  15.094 -23.661  0.00  0.00    +0.000 A 
ATOM     18  N   UNL     1     -42.508  14.443 -22.483  0.00  0.00    +0.000 NA
ATOM     19  H   UNL     1     -44.494  17.285 -25.239  0.00  0.00    +0.000 HD
ENDROOT
BRANCH   9  20
ATOM     20  C   UNL     1     -39.765  13.667 -25.664  0.00  0.00    +0.000 C 
BRANCH  20  21
ATOM     21  C   UNL     1     -40.436  12.878 -26.779  0.00  0.00    +0.000 C 
BRANCH  21  22
ATOM     22  O   UNL     1     -40.400  11.510 -26.495  0.00  0.00    +0.000 OA
ATOM     23  H   UNL     1     -39.790  11.349 -25.756  0.00  0.00    +0.000 HD
ENDBRANCH  21  22
BRANCH  21  24
ATOM     24  C   UNL     1     -39.756  13.169 -28.116  0.00  0.00    +0.000 C 
BRANCH  24  25
ATOM     25  O   UNL     1     -39.362  11.974 -28.726  0.00  0.00    +0.000 OA
ATOM     26  H   UNL     1     -40.137  11.538 -29.114  0.00  0.00    +0.000 HD
ENDBRANCH  24  25
BRANCH  24  27
ATOM     27  C   UNL     1     -40.677  13.956 -29.044  0.00  0.00    +0.000 C 
BRANCH  27  28
ATOM     28  O   UNL     1     -41.940  14.085 -28.463  0.00  0.00    +0.000 OA
ATOM     29  H   UNL     1     -42.101  13.334 -27.870  0.00  0.00    +0.000 HD
ENDBRANCH  27  28
BRANCH  27  30
ATOM     30  C   UNL     1     -40.813  13.246 -30.383  0.00  0.00    +0.000 C 
BRANCH  30  31
ATOM     31  O   UNL     1     -42.102  12.731 -30.517  0.00  0.00    +0.000 OA
ATOM     32  H   UNL     1     -42.686  13.413 -30.886  0.00  0.00    +0.000 HD
ENDBRANCH  30  31
ENDBRANCH  27  30
ENDBRANCH  24  27
ENDBRANCH  21  24
ENDBRANCH  20  21
ENDBRANCH   9  20
TORSDOF 9
ENDMDL
