MODEL 1
REMARK VINA RESULT:      -6.7      0.000      0.000
REMARK  Name = ZINC000031807721
REMARK  2 active torsions:
REMARK  status: ('A' for Active; 'I' for Inactive)
REMARK    1  A    between atoms: C_7  and  C_24
REMARK    2  A    between atoms: C_27  and  O_28
REMARK                            x       y       z     vdW  Elec       q    Type
REMARK                         _______ _______ _______ _____ _____    ______ ____
ROOT
ATOM      1  C   UNL     1     -42.959  -5.822 -34.920  0.00  0.00    +0.000 C 
ATOM      2  C   UNL     1     -43.762  -6.225 -33.732  0.00  0.00    +0.000 A 
ATOM      3  N   UNL     1     -43.599  -7.395 -33.089  0.00  0.00    +0.000 NA
ATOM      4  N   UNL     1     -44.461  -7.424 -32.085  0.00  0.00    +0.000 N 
ATOM      5  C   UNL     1     -45.162  -6.267 -32.050  0.00  0.00    +0.000 A 
ATOM      6  C   UNL     1     -44.748  -5.471 -33.118  0.00  0.00    +0.000 A 
ATOM      7  C   UNL     1     -45.145  -4.084 -33.541  0.00  0.00    +0.000 C 
ATOM      8  S   UNL     1     -46.875  -3.643 -33.195  0.00  0.00    +0.000 S 
ATOM      9  C   UNL     1     -46.573  -3.491 -31.418  0.00  0.00    +0.000 C 
ATOM     10  C   UNL     1     -46.857  -4.782 -30.744  0.00  0.00    +0.000 C 
ATOM     11  O   UNL     1     -47.756  -4.812 -29.865  0.00  0.00    +0.000 OA
ATOM     12  N   UNL     1     -46.125  -5.979 -31.023  0.00  0.00    +0.000 N 
ATOM     13  H   UNL     1     -46.314  -6.729 -30.414  0.00  0.00    +0.000 HD
ATOM     14  C   UNL     1     -44.538  -8.523 -31.166  0.00  0.00    +0.000 A 
ATOM     15  N   UNL     1     -43.396  -9.145 -30.744  0.00  0.00    +0.000 NA
ATOM     16  C   UNL     1     -43.436 -10.216 -29.890  0.00  0.00    +0.000 A 
ATOM     17  N   UNL     1     -44.633 -10.704 -29.444  0.00  0.00    +0.000 NA
ATOM     18  C   UNL     1     -45.766 -10.098 -29.872  0.00  0.00    +0.000 A 
ATOM     19  N   UNL     1     -47.022 -10.467 -29.593  0.00  0.00    +0.000 N 
ATOM     20  C   UNL     1     -47.756  -9.577 -30.315  0.00  0.00    +0.000 A 
ATOM     21  N   UNL     1     -47.006  -8.690 -31.025  0.00  0.00    +0.000 NA
ATOM     22  C   UNL     1     -45.752  -9.041 -30.711  0.00  0.00    +0.000 A 
ATOM     23  H   UNL     1     -47.336 -11.196 -29.011  0.00  0.00    +0.000 HD
ENDROOT
BRANCH   7  24
ATOM     24  C   UNL     1     -44.158  -3.009 -33.172  0.00  0.00    +0.000 A 
ATOM     25  C   UNL     1     -44.375  -1.704 -33.627  0.00  0.00    +0.000 A 
ATOM     26  C   UNL     1     -43.481  -0.683 -33.291  0.00  0.00    +0.000 A 
ATOM     27  C   UNL     1     -42.366  -0.963 -32.497  0.00  0.00    +0.000 A 
ATOM     28  C   UNL     1     -42.145  -2.263 -32.035  0.00  0.00    +0.000 A 
ATOM     29  C   UNL     1     -43.038  -3.284 -32.371  0.00  0.00    +0.000 A 
BRANCH  27  30
ATOM     30  O   UNL     1     -41.479   0.052 -32.164  0.00  0.00    +0.000 OA
ATOM     31  H   UNL     1     -40.559  -0.069 -32.295  0.00  0.00    +0.000 HD
ENDBRANCH  27  30
ENDBRANCH   7  24
TORSDOF 2
ENDMDL
MODEL 2
REMARK VINA RESULT:      -6.6      2.649      3.191
REMARK  Name = ZINC000031807721
REMARK  2 active torsions:
REMARK  status: ('A' for Active; 'I' for Inactive)
REMARK    1  A    between atoms: C_7  and  C_24
REMARK    2  A    between atoms: C_27  and  O_28
REMARK                            x       y       z     vdW  Elec       q    Type
REMARK                         _______ _______ _______ _____ _____    ______ ____
ROOT
ATOM      1  C   UNL     1     -47.424  -4.486 -34.442  0.00  0.00    +0.000 C 
ATOM      2  C   UNL     1     -46.675  -5.633 -33.856  0.00  0.00    +0.000 A 
ATOM      3  N   UNL     1     -46.574  -6.834 -34.452  0.00  0.00    +0.000 NA
ATOM      4  N   UNL     1     -45.839  -7.609 -33.670  0.00  0.00    +0.000 N 
ATOM      5  C   UNL     1     -45.432  -6.910 -32.585  0.00  0.00    +0.000 A 
ATOM      6  C   UNL     1     -45.973  -5.626 -32.662  0.00  0.00    +0.000 A 
ATOM      7  C   UNL     1     -45.825  -4.426 -31.770  0.00  0.00    +0.000 C 
ATOM      8  S   UNL     1     -45.620  -4.805 -30.002  0.00  0.00    +0.000 S 
ATOM      9  C   UNL     1     -43.925  -5.392 -30.234  0.00  0.00    +0.000 C 
ATOM     10  C   UNL     1     -43.924  -6.858 -30.461  0.00  0.00    +0.000 C 
ATOM     11  O   UNL     1     -43.306  -7.588 -29.645  0.00  0.00    +0.000 OA
ATOM     12  N   UNL     1     -44.559  -7.468 -31.589  0.00  0.00    +0.000 N 
ATOM     13  H   UNL     1     -44.368  -8.427 -31.700  0.00  0.00    +0.000 HD
ATOM     14  C   UNL     1     -45.503  -8.959 -34.018  0.00  0.00    +0.000 A 
ATOM     15  N   UNL     1     -45.200  -9.279 -35.311  0.00  0.00    +0.000 NA
ATOM     16  C   UNL     1     -44.904 -10.565 -35.683  0.00  0.00    +0.000 A 
ATOM     17  N   UNL     1     -44.917 -11.573 -34.760  0.00  0.00    +0.000 NA
ATOM     18  C   UNL     1     -45.230 -11.262 -33.480  0.00  0.00    +0.000 A 
ATOM     19  N   UNL     1     -45.350 -12.116 -32.457  0.00  0.00    +0.000 N 
ATOM     20  C   UNL     1     -45.736 -11.301 -31.438  0.00  0.00    +0.000 A 
ATOM     21  N   UNL     1     -45.863  -9.994 -31.795  0.00  0.00    +0.000 NA
ATOM     22  C   UNL     1     -45.523 -10.003 -33.091  0.00  0.00    +0.000 A 
ATOM     23  H   UNL     1     -45.196 -13.089 -32.444  0.00  0.00    +0.000 HD
ENDROOT
BRANCH   7  24
ATOM     24  C   UNL     1     -44.874  -3.378 -32.280  0.00  0.00    +0.000 A 
ATOM     25  C   UNL     1     -44.944  -2.083 -31.754  0.00  0.00    +0.000 A 
ATOM     26  C   UNL     1     -44.066  -1.092 -32.202  0.00  0.00    +0.000 A 
ATOM     27  C   UNL     1     -43.111  -1.392 -33.178  0.00  0.00    +0.000 A 
ATOM     28  C   UNL     1     -43.032  -2.683 -33.705  0.00  0.00    +0.000 A 
ATOM     29  C   UNL     1     -43.910  -3.674 -33.258  0.00  0.00    +0.000 A 
BRANCH  27  30
ATOM     30  O   UNL     1     -42.240  -0.406 -33.622  0.00  0.00    +0.000 OA
ATOM     31  H   UNL     1     -41.325  -0.593 -33.706  0.00  0.00    +0.000 HD
ENDBRANCH  27  30
ENDBRANCH   7  24
TORSDOF 2
ENDMDL
MODEL 3
REMARK VINA RESULT:      -6.5     14.517     17.955
REMARK  Name = ZINC000031807721
REMARK  2 active torsions:
REMARK  status: ('A' for Active; 'I' for Inactive)
REMARK    1  A    between atoms: C_7  and  C_24
REMARK    2  A    between atoms: C_27  and  O_28
REMARK                            x       y       z     vdW  Elec       q    Type
REMARK                         _______ _______ _______ _____ _____    ______ ____
ROOT
ATOM      1  C   UNL     1     -46.992 -19.186 -20.025  0.00  0.00    +0.000 C 
ATOM      2  C   UNL     1     -45.629 -19.003 -19.453  0.00  0.00    +0.000 A 
ATOM      3  N   UNL     1     -44.789 -20.021 -19.200  0.00  0.00    +0.000 NA
ATOM      4  N   UNL     1     -43.673 -19.507 -18.709  0.00  0.00    +0.000 N 
ATOM      5  C   UNL     1     -43.768 -18.158 -18.671  0.00  0.00    +0.000 A 
ATOM      6  C   UNL     1     -45.035 -17.795 -19.129  0.00  0.00    +0.000 A 
ATOM      7  C   UNL     1     -45.671 -16.450 -19.344  0.00  0.00    +0.000 C 
ATOM      8  S   UNL     1     -45.144 -15.158 -18.175  0.00  0.00    +0.000 S 
ATOM      9  C   UNL     1     -43.515 -15.002 -18.946  0.00  0.00    +0.000 C 
ATOM     10  C   UNL     1     -42.545 -15.894 -18.265  0.00  0.00    +0.000 C 
ATOM     11  O   UNL     1     -41.543 -15.374 -17.711  0.00  0.00    +0.000 OA
ATOM     12  N   UNL     1     -42.681 -17.318 -18.249  0.00  0.00    +0.000 N 
ATOM     13  H   UNL     1     -41.903 -17.801 -17.888  0.00  0.00    +0.000 HD
ATOM     14  C   UNL     1     -42.542 -20.315 -18.354  0.00  0.00    +0.000 A 
ATOM     15  N   UNL     1     -42.193 -21.383 -19.132  0.00  0.00    +0.000 NA
ATOM     16  C   UNL     1     -41.136 -22.194 -18.806  0.00  0.00    +0.000 A 
ATOM     17  N   UNL     1     -40.404 -21.958 -17.675  0.00  0.00    +0.000 NA
ATOM     18  C   UNL     1     -40.757 -20.908 -16.896  0.00  0.00    +0.000 A 
ATOM     19  N   UNL     1     -40.201 -20.557 -15.730  0.00  0.00    +0.000 N 
ATOM     20  C   UNL     1     -40.963 -19.496 -15.349  0.00  0.00    +0.000 A 
ATOM     21  N   UNL     1     -41.960 -19.190 -16.225  0.00  0.00    +0.000 NA
ATOM     22  C   UNL     1     -41.792 -20.096 -17.197  0.00  0.00    +0.000 A 
ATOM     23  H   UNL     1     -39.434 -20.963 -15.266  0.00  0.00    +0.000 HD
ENDROOT
BRANCH   7  24
ATOM     24  C   UNL     1     -45.708 -15.993 -20.777  0.00  0.00    +0.000 A 
ATOM     25  C   UNL     1     -46.316 -14.772 -21.085  0.00  0.00    +0.000 A 
ATOM     26  C   UNL     1     -46.357 -14.318 -22.406  0.00  0.00    +0.000 A 
ATOM     27  C   UNL     1     -45.786 -15.083 -23.427  0.00  0.00    +0.000 A 
ATOM     28  C   UNL     1     -45.173 -16.303 -23.126  0.00  0.00    +0.000 A 
ATOM     29  C   UNL     1     -45.133 -16.757 -21.806  0.00  0.00    +0.000 A 
BRANCH  27  30
ATOM     30  O   UNL     1     -45.827 -14.632 -24.739  0.00  0.00    +0.000 OA
ATOM     31  H   UNL     1     -46.546 -14.108 -25.032  0.00  0.00    +0.000 HD
ENDBRANCH  27  30
ENDBRANCH   7  24
TORSDOF 2
ENDMDL
