MODEL 1
REMARK VINA RESULT:      -6.2      0.000      0.000
REMARK  Name = ZINC000005372517 ZINC05372517 PubChem-92261927
REMARK  9 active torsions:
REMARK  status: ('A' for Active; 'I' for Inactive)
REMARK    1  A    between atoms: N_14  and  C_20
REMARK    2  A    between atoms: C_20  and  C_21
REMARK    3  A    between atoms: C_21  and  O_22
REMARK    4  A    between atoms: C_21  and  C_24
REMARK    5  A    between atoms: C_24  and  O_25
REMARK    6  A    between atoms: C_24  and  C_27
REMARK    7  A    between atoms: C_27  and  O_28
REMARK    8  A    between atoms: C_27  and  C_30
REMARK    9  A    between atoms: C_30  and  O_31
REMARK                            x       y       z     vdW  Elec       q    Type
REMARK                         _______ _______ _______ _____ _____    ______ ____
ROOT
ATOM      1  C   UNL     1     -47.129  -3.512 -23.503  0.00  0.00    +0.000 C 
ATOM      2  C   UNL     1     -47.110  -3.953 -24.927  0.00  0.00    +0.000 A 
ATOM      3  C   UNL     1     -46.789  -5.281 -25.213  0.00  0.00    +0.000 A 
ATOM      4  C   UNL     1     -46.759  -5.736 -26.534  0.00  0.00    +0.000 A 
ATOM      5  C   UNL     1     -46.429  -7.064 -26.783  0.00  0.00    +0.000 A 
ATOM      6  C   UNL     1     -46.390  -7.533 -28.091  0.00  0.00    +0.000 A 
ATOM      7  C   UNL     1     -46.060  -8.857 -28.406  0.00  0.00    +0.000 A 
ATOM      8  O   UNL     1     -45.787  -9.686 -27.496  0.00  0.00    +0.000 OA
ATOM      9  N   UNL     1     -46.033  -9.255 -29.706  0.00  0.00    +0.000 N 
ATOM     10  C   UNL     1     -46.316  -8.416 -30.739  0.00  0.00    +0.000 A 
ATOM     11  O   UNL     1     -46.271  -8.845 -31.920  0.00  0.00    +0.000 OA
ATOM     12  C   UNL     1     -46.654  -7.082 -30.502  0.00  0.00    +0.000 A 
ATOM     13  C   UNL     1     -46.707  -6.595 -29.191  0.00  0.00    +0.000 A 
ATOM     14  N   UNL     1     -47.037  -5.294 -28.906  0.00  0.00    +0.000 N 
ATOM     15  C   UNL     1     -47.059  -4.853 -27.603  0.00  0.00    +0.000 A 
ATOM     16  C   UNL     1     -47.376  -3.517 -27.297  0.00  0.00    +0.000 A 
ATOM     17  C   UNL     1     -47.404  -3.064 -25.975  0.00  0.00    +0.000 A 
ATOM     18  C   UNL     1     -47.751  -1.638 -25.716  0.00  0.00    +0.000 C 
ATOM     19  H   UNL     1     -45.800 -10.189 -29.907  0.00  0.00    +0.000 HD
ENDROOT
BRANCH  14  20
ATOM     20  C   UNL     1     -47.376  -4.369 -29.997  0.00  0.00    +0.000 C 
BRANCH  20  21
ATOM     21  C   UNL     1     -46.116  -3.796 -30.636  0.00  0.00    +0.000 C 
BRANCH  21  22
ATOM     22  O   UNL     1     -45.960  -2.465 -30.244  0.00  0.00    +0.000 OA
ATOM     23  H   UNL     1     -45.022  -2.222 -30.289  0.00  0.00    +0.000 HD
ENDBRANCH  21  22
BRANCH  21  24
ATOM     24  C   UNL     1     -46.171  -3.911 -32.163  0.00  0.00    +0.000 C 
BRANCH  24  25
ATOM     25  O   UNL     1     -47.197  -3.128 -32.698  0.00  0.00    +0.000 OA
ATOM     26  H   UNL     1     -47.595  -3.587 -33.454  0.00  0.00    +0.000 HD
ENDBRANCH  24  25
BRANCH  24  27
ATOM     27  C   UNL     1     -44.832  -3.612 -32.846  0.00  0.00    +0.000 C 
BRANCH  27  28
ATOM     28  O   UNL     1     -43.805  -3.636 -31.904  0.00  0.00    +0.000 OA
ATOM     29  H   UNL     1     -44.106  -4.098 -31.106  0.00  0.00    +0.000 HD
ENDBRANCH  27  28
BRANCH  27  30
ATOM     30  C   UNL     1     -44.816  -2.280 -33.587  0.00  0.00    +0.000 C 
BRANCH  30  31
ATOM     31  O   UNL     1     -44.773  -1.224 -32.676  0.00  0.00    +0.000 OA
ATOM     32  H   UNL     1     -43.963  -0.708 -32.818  0.00  0.00    +0.000 HD
ENDBRANCH  30  31
ENDBRANCH  27  30
ENDBRANCH  24  27
ENDBRANCH  21  24
ENDBRANCH  20  21
ENDBRANCH  14  20
TORSDOF 9
ENDMDL
MODEL 2
REMARK VINA RESULT:      -6.1     11.782     15.594
REMARK  Name = ZINC000005372517 ZINC05372517 PubChem-92261927
REMARK  9 active torsions:
REMARK  status: ('A' for Active; 'I' for Inactive)
REMARK    1  A    between atoms: N_14  and  C_20
REMARK    2  A    between atoms: C_20  and  C_21
REMARK    3  A    between atoms: C_21  and  O_22
REMARK    4  A    between atoms: C_21  and  C_24
REMARK    5  A    between atoms: C_24  and  O_25
REMARK    6  A    between atoms: C_24  and  C_27
REMARK    7  A    between atoms: C_27  and  O_28
REMARK    8  A    between atoms: C_27  and  C_30
REMARK    9  A    between atoms: C_30  and  O_31
REMARK                            x       y       z     vdW  Elec       q    Type
REMARK                         _______ _______ _______ _____ _____    ______ ____
ROOT
ATOM      1  C   UNL     1     -46.676 -12.651 -19.355  0.00  0.00    +0.000 C 
ATOM      2  C   UNL     1     -46.375 -13.969 -19.982  0.00  0.00    +0.000 A 
ATOM      3  C   UNL     1     -46.215 -14.032 -21.368  0.00  0.00    +0.000 A 
ATOM      4  C   UNL     1     -45.932 -15.247 -21.997  0.00  0.00    +0.000 A 
ATOM      5  C   UNL     1     -45.785 -15.274 -23.379  0.00  0.00    +0.000 A 
ATOM      6  C   UNL     1     -45.507 -16.474 -24.022  0.00  0.00    +0.000 A 
ATOM      7  C   UNL     1     -45.353 -16.567 -25.411  0.00  0.00    +0.000 A 
ATOM      8  O   UNL     1     -45.457 -15.543 -26.139  0.00  0.00    +0.000 OA
ATOM      9  N   UNL     1     -45.088 -17.772 -25.982  0.00  0.00    +0.000 N 
ATOM     10  C   UNL     1     -44.963 -18.918 -25.259  0.00  0.00    +0.000 A 
ATOM     11  O   UNL     1     -44.720 -20.002 -25.848  0.00  0.00    +0.000 OA
ATOM     12  C   UNL     1     -45.103 -18.904 -23.870  0.00  0.00    +0.000 A 
ATOM     13  C   UNL     1     -45.373 -17.703 -23.206  0.00  0.00    +0.000 A 
ATOM     14  N   UNL     1     -45.516 -17.636 -21.842  0.00  0.00    +0.000 N 
ATOM     15  C   UNL     1     -45.800 -16.436 -21.233  0.00  0.00    +0.000 A 
ATOM     16  C   UNL     1     -45.969 -16.355 -19.838  0.00  0.00    +0.000 A 
ATOM     17  C   UNL     1     -46.253 -15.139 -19.212  0.00  0.00    +0.000 A 
ATOM     18  C   UNL     1     -46.418 -15.118 -17.730  0.00  0.00    +0.000 C 
ATOM     19  H   UNL     1     -44.983 -17.817 -26.959  0.00  0.00    +0.000 HD
ENDROOT
BRANCH  14  20
ATOM     20  C   UNL     1     -45.358 -18.850 -21.029  0.00  0.00    +0.000 C 
BRANCH  20  21
ATOM     21  C   UNL     1     -43.907 -19.030 -20.595  0.00  0.00    +0.000 C 
BRANCH  21  22
ATOM     22  O   UNL     1     -43.351 -20.118 -21.270  0.00  0.00    +0.000 OA
ATOM     23  H   UNL     1     -42.798 -19.798 -21.999  0.00  0.00    +0.000 HD
ENDBRANCH  21  22
BRANCH  21  24
ATOM     24  C   UNL     1     -43.805 -19.218 -19.078  0.00  0.00    +0.000 C 
BRANCH  24  25
ATOM     25  O   UNL     1     -45.049 -19.519 -18.516  0.00  0.00    +0.000 OA
ATOM     26  H   UNL     1     -45.043 -20.430 -18.182  0.00  0.00    +0.000 HD
ENDBRANCH  24  25
BRANCH  24  27
ATOM     27  C   UNL     1     -42.746 -20.244 -18.660  0.00  0.00    +0.000 C 
BRANCH  27  28
ATOM     28  O   UNL     1     -43.360 -21.456 -18.345  0.00  0.00    +0.000 OA
ATOM     29  H   UNL     1     -44.222 -21.508 -18.787  0.00  0.00    +0.000 HD
ENDBRANCH  27  28
BRANCH  27  30
ATOM     30  C   UNL     1     -41.889 -19.785 -17.486  0.00  0.00    +0.000 C 
BRANCH  30  31
ATOM     31  O   UNL     1     -42.701 -19.344 -16.441  0.00  0.00    +0.000 OA
ATOM     32  H   UNL     1     -42.201 -18.729 -15.881  0.00  0.00    +0.000 HD
ENDBRANCH  30  31
ENDBRANCH  27  30
ENDBRANCH  24  27
ENDBRANCH  21  24
ENDBRANCH  20  21
ENDBRANCH  14  20
TORSDOF 9
ENDMDL
MODEL 3
REMARK VINA RESULT:      -5.9     12.740     16.994
REMARK  Name = ZINC000005372517 ZINC05372517 PubChem-92261927
REMARK  9 active torsions:
REMARK  status: ('A' for Active; 'I' for Inactive)
REMARK    1  A    between atoms: N_14  and  C_20
REMARK    2  A    between atoms: C_20  and  C_21
REMARK    3  A    between atoms: C_21  and  O_22
REMARK    4  A    between atoms: C_21  and  C_24
REMARK    5  A    between atoms: C_24  and  O_25
REMARK    6  A    between atoms: C_24  and  C_27
REMARK    7  A    between atoms: C_27  and  O_28
REMARK    8  A    between atoms: C_27  and  C_30
REMARK    9  A    between atoms: C_30  and  O_31
REMARK                            x       y       z     vdW  Elec       q    Type
REMARK                         _______ _______ _______ _____ _____    ______ ____
ROOT
ATOM      1  C   UNL     1     -43.731 -18.630 -26.004  0.00  0.00    +0.000 C 
ATOM      2  C   UNL     1     -44.130 -18.463 -24.578  0.00  0.00    +0.000 A 
ATOM      3  C   UNL     1     -44.708 -17.255 -24.181  0.00  0.00    +0.000 A 
ATOM      4  C   UNL     1     -45.098 -17.055 -22.854  0.00  0.00    +0.000 A 
ATOM      5  C   UNL     1     -45.664 -15.838 -22.493  0.00  0.00    +0.000 A 
ATOM      6  C   UNL     1     -46.054 -15.620 -21.177  0.00  0.00    +0.000 A 
ATOM      7  C   UNL     1     -46.625 -14.415 -20.750  0.00  0.00    +0.000 A 
ATOM      8  O   UNL     1     -46.814 -13.470 -21.563  0.00  0.00    +0.000 OA
ATOM      9  N   UNL     1     -46.980 -14.259 -19.447  0.00  0.00    +0.000 N 
ATOM     10  C   UNL     1     -46.805 -15.235 -18.514  0.00  0.00    +0.000 A 
ATOM     11  O   UNL     1     -47.152 -15.029 -17.324  0.00  0.00    +0.000 OA
ATOM     12  C   UNL     1     -46.242 -16.464 -18.866  0.00  0.00    +0.000 A 
ATOM     13  C   UNL     1     -45.853 -16.704 -20.188  0.00  0.00    +0.000 A 
ATOM     14  N   UNL     1     -45.299 -17.896 -20.584  0.00  0.00    +0.000 N 
ATOM     15  C   UNL     1     -44.914 -18.081 -21.891  0.00  0.00    +0.000 A 
ATOM     16  C   UNL     1     -44.326 -19.290 -22.308  0.00  0.00    +0.000 A 
ATOM     17  C   UNL     1     -43.937 -19.486 -23.635  0.00  0.00    +0.000 A 
ATOM     18  C   UNL     1     -43.322 -20.791 -24.014  0.00  0.00    +0.000 C 
ATOM     19  H   UNL     1     -47.380 -13.406 -19.166  0.00  0.00    +0.000 HD
ENDROOT
BRANCH  14  20
ATOM     20  C   UNL     1     -45.123 -18.981 -19.609  0.00  0.00    +0.000 C 
BRANCH  20  21
ATOM     21  C   UNL     1     -43.880 -18.751 -18.757  0.00  0.00    +0.000 C 
BRANCH  21  22
ATOM     22  O   UNL     1     -42.914 -18.085 -19.514  0.00  0.00    +0.000 OA
ATOM     23  H   UNL     1     -42.825 -17.173 -19.195  0.00  0.00    +0.000 HD
ENDBRANCH  21  22
BRANCH  21  24
ATOM     24  C   UNL     1     -43.330 -20.075 -18.215  0.00  0.00    +0.000 C 
BRANCH  24  25
ATOM     25  O   UNL     1     -44.289 -21.089 -18.277  0.00  0.00    +0.000 OA
ATOM     26  H   UNL     1     -43.987 -21.785 -18.883  0.00  0.00    +0.000 HD
ENDBRANCH  24  25
BRANCH  24  27
ATOM     27  C   UNL     1     -42.020 -20.510 -18.879  0.00  0.00    +0.000 C 
BRANCH  27  28
ATOM     28  O   UNL     1     -42.272 -20.955 -20.176  0.00  0.00    +0.000 OA
ATOM     29  H   UNL     1     -41.485 -21.402 -20.525  0.00  0.00    +0.000 HD
ENDBRANCH  27  28
BRANCH  27  30
ATOM     30  C   UNL     1     -41.278 -21.592 -18.103  0.00  0.00    +0.000 C 
BRANCH  30  31
ATOM     31  O   UNL     1     -41.705 -21.610 -16.775  0.00  0.00    +0.000 OA
ATOM     32  H   UNL     1     -41.163 -20.997 -16.253  0.00  0.00    +0.000 HD
ENDBRANCH  30  31
ENDBRANCH  27  30
ENDBRANCH  24  27
ENDBRANCH  21  24
ENDBRANCH  20  21
ENDBRANCH  14  20
TORSDOF 9
ENDMDL
