MODEL 1
REMARK VINA RESULT:      -7.3      0.000      0.000
REMARK  Name = ZINC000100261004
REMARK  3 active torsions:
REMARK  status: ('A' for Active; 'I' for Inactive)
REMARK    1  A    between atoms: C_1  and  C_13
REMARK    2  A    between atoms: C_7  and  C_23
REMARK    3  A    between atoms: C_14  and  O_15
REMARK                            x       y       z     vdW  Elec       q    Type
REMARK                         _______ _______ _______ _____ _____    ______ ____
ROOT
ATOM      1  C   UNL     1     -45.629  -7.066 -33.971  0.00  0.00    +0.000 C 
ATOM      2  N   UNL     1     -45.201  -8.043 -34.713  0.00  0.00    +0.000 NA
ATOM      3  N   UNL     1     -45.640  -7.905 -36.037  0.00  0.00    +0.000 N 
ATOM      4  C   UNL     1     -46.433  -6.733 -36.073  0.00  0.00    +0.000 C 
ATOM      5  O   UNL     1     -47.006  -6.297 -37.106  0.00  0.00    +0.000 OA
ATOM      6  C   UNL     1     -46.439  -6.120 -34.763  0.00  0.00    +0.000 C 
ATOM      7  C   UNL     1     -47.002  -4.944 -34.458  0.00  0.00    +0.000 C 
ATOM      8  H   UNL     1     -45.437  -8.503 -36.792  0.00  0.00    +0.000 HD
ENDROOT
BRANCH   1  13
ATOM      9  C   UNL     1     -47.342  -8.174 -29.461  0.00  0.00    +0.000 C 
ATOM     10  N   UNL     1     -46.283  -7.617 -30.303  0.00  0.00    +0.000 N 
ATOM     11  C   UNL     1     -46.442  -7.631 -31.662  0.00  0.00    +0.000 A 
ATOM     12  O   UNL     1     -47.478  -8.145 -32.171  0.00  0.00    +0.000 OA
ATOM     13  C   UNL     1     -45.454  -7.080 -32.504  0.00  0.00    +0.000 A 
ATOM     14  C   UNL     1     -44.283  -6.561 -31.935  0.00  0.00    +0.000 A 
ATOM     15  C   UNL     1     -44.126  -6.560 -30.545  0.00  0.00    +0.000 A 
ATOM     16  C   UNL     1     -42.969  -6.029 -29.959  0.00  0.00    +0.000 A 
ATOM     17  C   UNL     1     -42.822  -6.023 -28.570  0.00  0.00    +0.000 A 
ATOM     18  C   UNL     1     -43.828  -6.545 -27.758  0.00  0.00    +0.000 A 
ATOM     19  C   UNL     1     -44.985  -7.076 -28.332  0.00  0.00    +0.000 A 
ATOM     20  C   UNL     1     -45.152  -7.093 -29.729  0.00  0.00    +0.000 A 
BRANCH  14  21
ATOM     21  O   UNL     1     -43.285  -6.030 -32.750  0.00  0.00    +0.000 OA
ATOM     22  H   UNL     1     -43.506  -5.666 -33.585  0.00  0.00    +0.000 HD
ENDBRANCH  14  21
ENDBRANCH   1  13
BRANCH   7  23
ATOM     23  C   UNL     1     -46.838  -4.202 -33.199  0.00  0.00    +0.000 A 
ATOM     24  C   UNL     1     -47.444  -4.464 -31.972  0.00  0.00    +0.000 A 
ATOM     25  N   UNL     1     -46.970  -3.624 -31.019  0.00  0.00    +0.000 N 
ATOM     26  C   UNL     1     -46.058  -2.859 -31.644  0.00  0.00    +0.000 A 
ATOM     27  C   UNL     1     -45.285  -1.850 -31.073  0.00  0.00    +0.000 A 
ATOM     28  C   UNL     1     -44.371  -1.176 -31.904  0.00  0.00    +0.000 A 
ATOM     29  C   UNL     1     -44.250  -1.524 -33.267  0.00  0.00    +0.000 A 
ATOM     30  C   UNL     1     -45.042  -2.548 -33.816  0.00  0.00    +0.000 A 
ATOM     31  C   UNL     1     -45.938  -3.193 -32.966  0.00  0.00    +0.000 A 
ATOM     32  H   UNL     1     -47.237  -3.583 -30.072  0.00  0.00    +0.000 HD
ENDBRANCH   7  23
TORSDOF 3
ENDMDL
MODEL 2
REMARK VINA RESULT:      -7.2     12.076     15.807
REMARK  Name = ZINC000100261004
REMARK  3 active torsions:
REMARK  status: ('A' for Active; 'I' for Inactive)
REMARK    1  A    between atoms: C_1  and  C_13
REMARK    2  A    between atoms: C_7  and  C_23
REMARK    3  A    between atoms: C_14  and  O_15
REMARK                            x       y       z     vdW  Elec       q    Type
REMARK                         _______ _______ _______ _____ _____    ______ ____
ROOT
ATOM      1  C   UNL     1     -45.272 -15.443 -21.181  0.00  0.00    +0.000 C 
ATOM      2  N   UNL     1     -45.633 -14.309 -20.660  0.00  0.00    +0.000 NA
ATOM      3  N   UNL     1     -46.458 -14.502 -19.544  0.00  0.00    +0.000 N 
ATOM      4  C   UNL     1     -46.623 -15.902 -19.408  0.00  0.00    +0.000 C 
ATOM      5  O   UNL     1     -47.316 -16.450 -18.511  0.00  0.00    +0.000 OA
ATOM      6  C   UNL     1     -45.847 -16.575 -20.427  0.00  0.00    +0.000 C 
ATOM      7  C   UNL     1     -45.686 -17.900 -20.532  0.00  0.00    +0.000 C 
ATOM      8  H   UNL     1     -46.848 -13.804 -18.968  0.00  0.00    +0.000 HD
ENDROOT
BRANCH   1  13
ATOM      9  C   UNL     1     -41.046 -15.951 -23.708  0.00  0.00    +0.000 C 
ATOM     10  N   UNL     1     -42.496 -15.750 -23.708  0.00  0.00    +0.000 N 
ATOM     11  C   UNL     1     -43.159 -15.720 -22.510  0.00  0.00    +0.000 A 
ATOM     12  O   UNL     1     -42.523 -15.893 -21.432  0.00  0.00    +0.000 OA
ATOM     13  C   UNL     1     -44.552 -15.504 -22.469  0.00  0.00    +0.000 A 
ATOM     14  C   UNL     1     -45.258 -15.367 -23.672  0.00  0.00    +0.000 A 
ATOM     15  C   UNL     1     -44.572 -15.409 -24.890  0.00  0.00    +0.000 A 
ATOM     16  C   UNL     1     -45.261 -15.256 -26.101  0.00  0.00    +0.000 A 
ATOM     17  C   UNL     1     -44.570 -15.289 -27.314  0.00  0.00    +0.000 A 
ATOM     18  C   UNL     1     -43.187 -15.473 -27.326  0.00  0.00    +0.000 A 
ATOM     19  C   UNL     1     -42.492 -15.626 -26.125  0.00  0.00    +0.000 A 
ATOM     20  C   UNL     1     -43.170 -15.596 -24.892  0.00  0.00    +0.000 A 
BRANCH  14  21
ATOM     21  O   UNL     1     -46.638 -15.172 -23.655  0.00  0.00    +0.000 OA
ATOM     22  H   UNL     1     -47.211 -15.855 -23.945  0.00  0.00    +0.000 HD
ENDBRANCH  14  21
ENDBRANCH   1  13
BRANCH   7  23
ATOM     23  C   UNL     1     -44.738 -18.593 -21.417  0.00  0.00    +0.000 A 
ATOM     24  C   UNL     1     -43.525 -19.183 -21.068  0.00  0.00    +0.000 A 
ATOM     25  N   UNL     1     -42.979 -19.814 -22.137  0.00  0.00    +0.000 N 
ATOM     26  C   UNL     1     -43.857 -19.636 -23.139  0.00  0.00    +0.000 A 
ATOM     27  C   UNL     1     -43.743 -20.116 -24.442  0.00  0.00    +0.000 A 
ATOM     28  C   UNL     1     -44.789 -19.831 -25.338  0.00  0.00    +0.000 A 
ATOM     29  C   UNL     1     -45.912 -19.086 -24.917  0.00  0.00    +0.000 A 
ATOM     30  C   UNL     1     -46.002 -18.616 -23.595  0.00  0.00    +0.000 A 
ATOM     31  C   UNL     1     -44.947 -18.914 -22.734  0.00  0.00    +0.000 A 
ATOM     32  H   UNL     1     -42.121 -20.297 -22.173  0.00  0.00    +0.000 HD
ENDBRANCH   7  23
TORSDOF 3
ENDMDL
MODEL 3
REMARK VINA RESULT:      -6.8      2.698      5.206
REMARK  Name = ZINC000100261004
REMARK  3 active torsions:
REMARK  status: ('A' for Active; 'I' for Inactive)
REMARK    1  A    between atoms: C_1  and  C_13
REMARK    2  A    between atoms: C_7  and  C_23
REMARK    3  A    between atoms: C_14  and  O_15
REMARK                            x       y       z     vdW  Elec       q    Type
REMARK                         _______ _______ _______ _____ _____    ______ ____
ROOT
ATOM      1  C   UNL     1     -46.249  -4.541 -30.738  0.00  0.00    +0.000 C 
ATOM      2  N   UNL     1     -46.324  -3.246 -30.807  0.00  0.00    +0.000 NA
ATOM      3  N   UNL     1     -46.823  -2.831 -32.049  0.00  0.00    +0.000 N 
ATOM      4  C   UNL     1     -47.042  -4.009 -32.803  0.00  0.00    +0.000 C 
ATOM      5  O   UNL     1     -47.482  -4.024 -33.983  0.00  0.00    +0.000 OA
ATOM      6  C   UNL     1     -46.718  -5.163 -31.992  0.00  0.00    +0.000 C 
ATOM      7  C   UNL     1     -46.904  -6.440 -32.348  0.00  0.00    +0.000 C 
ATOM      8  H   UNL     1     -46.989  -1.905 -32.341  0.00  0.00    +0.000 HD
ENDROOT
BRANCH   1  13
ATOM      9  C   UNL     1     -42.248  -6.698 -28.779  0.00  0.00    +0.000 C 
ATOM     10  N   UNL     1     -43.639  -6.267 -28.641  0.00  0.00    +0.000 N 
ATOM     11  C   UNL     1     -44.238  -5.622 -29.689  0.00  0.00    +0.000 A 
ATOM     12  O   UNL     1     -43.581  -5.383 -30.742  0.00  0.00    +0.000 OA
ATOM     13  C   UNL     1     -45.585  -5.214 -29.602  0.00  0.00    +0.000 A 
ATOM     14  C   UNL     1     -46.291  -5.434 -28.412  0.00  0.00    +0.000 A 
ATOM     15  C   UNL     1     -45.666  -6.086 -27.344  0.00  0.00    +0.000 A 
ATOM     16  C   UNL     1     -46.363  -6.330 -26.152  0.00  0.00    +0.000 A 
ATOM     17  C   UNL     1     -45.738  -6.990 -25.092  0.00  0.00    +0.000 A 
ATOM     18  C   UNL     1     -44.414  -7.411 -25.214  0.00  0.00    +0.000 A 
ATOM     19  C   UNL     1     -43.711  -7.173 -26.397  0.00  0.00    +0.000 A 
ATOM     20  C   UNL     1     -44.323  -6.509 -27.477  0.00  0.00    +0.000 A 
BRANCH  14  21
ATOM     21  O   UNL     1     -47.618  -5.022 -28.297  0.00  0.00    +0.000 OA
ATOM     22  H   UNL     1     -47.965  -4.391 -28.897  0.00  0.00    +0.000 HD
ENDBRANCH  14  21
ENDBRANCH   1  13
BRANCH   7  23
ATOM     23  C   UNL     1     -46.786  -7.613 -31.469  0.00  0.00    +0.000 A 
ATOM     24  C   UNL     1     -47.754  -8.135 -30.613  0.00  0.00    +0.000 A 
ATOM     25  N   UNL     1     -47.314  -9.283 -30.042  0.00  0.00    +0.000 N 
ATOM     26  C   UNL     1     -46.088  -9.486 -30.557  0.00  0.00    +0.000 A 
ATOM     27  C   UNL     1     -45.235 -10.554 -30.281  0.00  0.00    +0.000 A 
ATOM     28  C   UNL     1     -43.995 -10.587 -30.943  0.00  0.00    +0.000 A 
ATOM     29  C   UNL     1     -43.640  -9.569 -31.855  0.00  0.00    +0.000 A 
ATOM     30  C   UNL     1     -44.522  -8.505 -32.115  0.00  0.00    +0.000 A 
ATOM     31  C   UNL     1     -45.741  -8.501 -31.441  0.00  0.00    +0.000 A 
ATOM     32  H   UNL     1     -47.789  -9.847 -29.389  0.00  0.00    +0.000 HD
ENDBRANCH   7  23
TORSDOF 3
ENDMDL
