MODEL 1
REMARK VINA RESULT:      -7.0      0.000      0.000
REMARK  Name = ZINC000033168752 ZINC33168752 PubChem-92884272
REMARK  7 active torsions:
REMARK  status: ('A' for Active; 'I' for Inactive)
REMARK    1  A    between atoms: C_5  and  C_21
REMARK    2  A    between atoms: C_7  and  S_13
REMARK    3  A    between atoms: S_13  and  C_18
REMARK    4  A    between atoms: N_23  and  C_25
REMARK    5  A    between atoms: C_25  and  C_26
REMARK    6  A    between atoms: C_28  and  O_34
REMARK    7  A    between atoms: C_31  and  O_32
REMARK                            x       y       z     vdW  Elec       q    Type
REMARK                         _______ _______ _______ _____ _____    ______ ____
ROOT
ATOM      1  N   UNL     1     -45.671  -6.857 -29.662  0.00  0.00    +0.000 N 
ATOM      2  C   UNL     1     -45.543  -6.689 -28.210  0.00  0.00    +0.000 C 
ATOM      3  C   UNL     1     -46.691  -5.880 -27.622  0.00  0.00    +0.000 C 
ATOM      4  C   UNL     1     -46.878  -4.619 -28.444  0.00  0.00    +0.000 C 
ATOM      5  C   UNL     1     -47.287  -4.951 -29.882  0.00  0.00    +0.000 C 
ATOM      6  C   UNL     1     -46.839  -6.337 -30.378  0.00  0.00    +0.000 C 
ATOM      7  C   UNL     1     -45.450  -9.137 -30.653  0.00  0.00    +0.000 A 
ATOM      8  C   UNL     1     -44.892  -7.895 -30.278  0.00  0.00    +0.000 A 
ATOM      9  N   UNL     1     -43.579  -7.663 -30.555  0.00  0.00    +0.000 NA
ATOM     10  C   UNL     1     -42.799  -8.589 -31.169  0.00  0.00    +0.000 A 
ATOM     11  C   UNL     1     -43.355  -9.809 -31.544  0.00  0.00    +0.000 A 
ATOM     12  N   UNL     1     -44.665 -10.050 -31.286  0.00  0.00    +0.000 NA
ENDROOT
BRANCH   5  13
ATOM     13  C   UNL     1     -46.845  -3.873 -30.814  0.00  0.00    +0.000 C 
ATOM     14  O   UNL     1     -46.309  -2.834 -30.344  0.00  0.00    +0.000 OA
ATOM     15  N   UNL     1     -47.008  -4.028 -32.225  0.00  0.00    +0.000 N 
ATOM     16  H   UNL     1     -47.372  -4.874 -32.571  0.00  0.00    +0.000 HD
BRANCH  15  17
ATOM     17  C   UNL     1     -46.653  -2.977 -33.164  0.00  0.00    +0.000 C 
BRANCH  17  18
ATOM     18  C   UNL     1     -45.174  -2.951 -33.355  0.00  0.00    +0.000 A 
ATOM     19  C   UNL     1     -44.485  -1.745 -33.200  0.00  0.00    +0.000 A 
ATOM     20  C   UNL     1     -43.098  -1.683 -33.402  0.00  0.00    +0.000 A 
ATOM     21  C   UNL     1     -42.406  -2.842 -33.761  0.00  0.00    +0.000 A 
ATOM     22  C   UNL     1     -43.089  -4.049 -33.920  0.00  0.00    +0.000 A 
ATOM     23  C   UNL     1     -44.478  -4.114 -33.721  0.00  0.00    +0.000 A 
BRANCH  20  24
ATOM     24  O   UNL     1     -42.389  -0.487 -33.256  0.00  0.00    +0.000 OA
ATOM     25  C   UNL     1     -41.336  -0.328 -32.314  0.00  0.00    +0.000 C 
ENDBRANCH  20  24
BRANCH  23  26
ATOM     26  O   UNL     1     -45.177  -5.318 -33.875  0.00  0.00    +0.000 OA
ATOM     27  C   UNL     1     -44.533  -6.583 -33.909  0.00  0.00    +0.000 C 
ENDBRANCH  23  26
ENDBRANCH  17  18
ENDBRANCH  15  17
ENDBRANCH   5  13
BRANCH   7  28
ATOM     28  S   UNL     1     -47.184  -9.527 -30.410  0.00  0.00    +0.000 S 
BRANCH  28  33
ATOM     29  C   UNL     1     -46.142 -13.637 -26.059  0.00  0.00    +0.000 C 
ATOM     30  C   UNL     1     -46.388 -12.629 -27.123  0.00  0.00    +0.000 A 
ATOM     31  C   UNL     1     -46.284 -11.266 -26.834  0.00  0.00    +0.000 A 
ATOM     32  C   UNL     1     -46.520 -10.320 -27.835  0.00  0.00    +0.000 A 
ATOM     33  C   UNL     1     -46.856 -10.734 -29.128  0.00  0.00    +0.000 A 
ATOM     34  C   UNL     1     -46.967 -12.099 -29.415  0.00  0.00    +0.000 A 
ATOM     35  C   UNL     1     -46.730 -13.046 -28.413  0.00  0.00    +0.000 A 
ENDBRANCH  28  33
ENDBRANCH   7  28
TORSDOF 7
ENDMDL
MODEL 2
REMARK VINA RESULT:      -6.8      4.951      9.507
REMARK  Name = ZINC000033168752 ZINC33168752 PubChem-92884272
REMARK  7 active torsions:
REMARK  status: ('A' for Active; 'I' for Inactive)
REMARK    1  A    between atoms: C_5  and  C_21
REMARK    2  A    between atoms: C_7  and  S_13
REMARK    3  A    between atoms: S_13  and  C_18
REMARK    4  A    between atoms: N_23  and  C_25
REMARK    5  A    between atoms: C_25  and  C_26
REMARK    6  A    between atoms: C_28  and  O_34
REMARK    7  A    between atoms: C_31  and  O_32
REMARK                            x       y       z     vdW  Elec       q    Type
REMARK                         _______ _______ _______ _____ _____    ______ ____
ROOT
ATOM      1  N   UNL     1     -45.129  -6.035 -33.372  0.00  0.00    +0.000 N 
ATOM      2  C   UNL     1     -43.671  -6.095 -33.523  0.00  0.00    +0.000 C 
ATOM      3  C   UNL     1     -43.252  -6.342 -34.965  0.00  0.00    +0.000 C 
ATOM      4  C   UNL     1     -44.047  -7.511 -35.516  0.00  0.00    +0.000 C 
ATOM      5  C   UNL     1     -45.544  -7.192 -35.559  0.00  0.00    +0.000 C 
ATOM      6  C   UNL     1     -46.010  -6.138 -34.539  0.00  0.00    +0.000 C 
ATOM      7  C   UNL     1     -46.153  -4.122 -32.140  0.00  0.00    +0.000 A 
ATOM      8  C   UNL     1     -45.645  -5.439 -32.171  0.00  0.00    +0.000 A 
ATOM      9  N   UNL     1     -45.691  -6.181 -31.030  0.00  0.00    +0.000 NA
ATOM     10  C   UNL     1     -46.201  -5.687 -29.872  0.00  0.00    +0.000 A 
ATOM     11  C   UNL     1     -46.708  -4.391 -29.848  0.00  0.00    +0.000 A 
ATOM     12  N   UNL     1     -46.681  -3.645 -30.980  0.00  0.00    +0.000 NA
ENDROOT
BRANCH   5  13
ATOM     13  C   UNL     1     -46.349  -8.444 -35.451  0.00  0.00    +0.000 C 
ATOM     14  O   UNL     1     -46.454  -9.014 -34.331  0.00  0.00    +0.000 OA
ATOM     15  N   UNL     1     -47.012  -8.977 -36.598  0.00  0.00    +0.000 N 
ATOM     16  H   UNL     1     -46.966  -8.480 -37.447  0.00  0.00    +0.000 HD
BRANCH  15  17
ATOM     17  C   UNL     1     -47.751 -10.227 -36.553  0.00  0.00    +0.000 C 
BRANCH  17  18
ATOM     18  C   UNL     1     -47.399 -11.062 -37.737  0.00  0.00    +0.000 A 
ATOM     19  C   UNL     1     -47.038 -12.400 -37.550  0.00  0.00    +0.000 A 
ATOM     20  C   UNL     1     -46.674 -13.202 -38.641  0.00  0.00    +0.000 A 
ATOM     21  C   UNL     1     -46.675 -12.652 -39.925  0.00  0.00    +0.000 A 
ATOM     22  C   UNL     1     -47.031 -11.316 -40.119  0.00  0.00    +0.000 A 
ATOM     23  C   UNL     1     -47.394 -10.510 -39.028  0.00  0.00    +0.000 A 
BRANCH  20  24
ATOM     24  O   UNL     1     -46.306 -14.540 -38.476  0.00  0.00    +0.000 OA
ATOM     25  C   UNL     1     -46.406 -15.217 -37.230  0.00  0.00    +0.000 C 
ENDBRANCH  20  24
BRANCH  23  26
ATOM     26  O   UNL     1     -47.755  -9.168 -39.207  0.00  0.00    +0.000 OA
ATOM     27  C   UNL     1     -47.556  -8.474 -40.430  0.00  0.00    +0.000 C 
ENDBRANCH  23  26
ENDBRANCH  17  18
ENDBRANCH  15  17
ENDBRANCH   5  13
BRANCH   7  28
ATOM     28  S   UNL     1     -46.217  -3.078 -33.597  0.00  0.00    +0.000 S 
BRANCH  28  33
ATOM     29  C   UNL     1     -41.060  -0.199 -32.172  0.00  0.00    +0.000 C 
ATOM     30  C   UNL     1     -42.324  -0.896 -32.525  0.00  0.00    +0.000 A 
ATOM     31  C   UNL     1     -43.549  -0.393 -32.080  0.00  0.00    +0.000 A 
ATOM     32  C   UNL     1     -44.737  -1.053 -32.410  0.00  0.00    +0.000 A 
ATOM     33  C   UNL     1     -44.702  -2.213 -33.190  0.00  0.00    +0.000 A 
ATOM     34  C   UNL     1     -43.474  -2.720 -33.630  0.00  0.00    +0.000 A 
ATOM     35  C   UNL     1     -42.287  -2.060 -33.299  0.00  0.00    +0.000 A 
ENDBRANCH  28  33
ENDBRANCH   7  28
TORSDOF 7
ENDMDL
MODEL 3
REMARK VINA RESULT:      -6.7      4.169      9.268
REMARK  Name = ZINC000033168752 ZINC33168752 PubChem-92884272
REMARK  7 active torsions:
REMARK  status: ('A' for Active; 'I' for Inactive)
REMARK    1  A    between atoms: C_5  and  C_21
REMARK    2  A    between atoms: C_7  and  S_13
REMARK    3  A    between atoms: S_13  and  C_18
REMARK    4  A    between atoms: N_23  and  C_25
REMARK    5  A    between atoms: C_25  and  C_26
REMARK    6  A    between atoms: C_28  and  O_34
REMARK    7  A    between atoms: C_31  and  O_32
REMARK                            x       y       z     vdW  Elec       q    Type
REMARK                         _______ _______ _______ _____ _____    ______ ____
ROOT
ATOM      1  N   UNL     1     -44.934  -5.936 -32.933  0.00  0.00    +0.000 N 
ATOM      2  C   UNL     1     -43.472  -5.881 -33.034  0.00  0.00    +0.000 C 
ATOM      3  C   UNL     1     -42.980  -6.207 -34.438  0.00  0.00    +0.000 C 
ATOM      4  C   UNL     1     -43.652  -7.482 -34.912  0.00  0.00    +0.000 C 
ATOM      5  C   UNL     1     -45.168  -7.300 -35.026  0.00  0.00    +0.000 C 
ATOM      6  C   UNL     1     -45.759  -6.210 -34.114  0.00  0.00    +0.000 C 
ATOM      7  C   UNL     1     -46.162  -4.025 -31.898  0.00  0.00    +0.000 A 
ATOM      8  C   UNL     1     -45.543  -5.291 -31.803  0.00  0.00    +0.000 A 
ATOM      9  N   UNL     1     -45.569  -5.939 -30.605  0.00  0.00    +0.000 NA
ATOM     10  C   UNL     1     -46.161  -5.398 -29.509  0.00  0.00    +0.000 A 
ATOM     11  C   UNL     1     -46.777  -4.154 -29.609  0.00  0.00    +0.000 A 
ATOM     12  N   UNL     1     -46.770  -3.503 -30.799  0.00  0.00    +0.000 NA
ENDROOT
BRANCH   5  13
ATOM     13  C   UNL     1     -45.868  -8.604 -34.837  0.00  0.00    +0.000 C 
ATOM     14  O   UNL     1     -47.016  -8.764 -35.332  0.00  0.00    +0.000 OA
ATOM     15  N   UNL     1     -45.234  -9.664 -34.121  0.00  0.00    +0.000 N 
ATOM     16  H   UNL     1     -44.314  -9.536 -33.797  0.00  0.00    +0.000 HD
BRANCH  15  17
ATOM     17  C   UNL     1     -45.904 -10.926 -33.855  0.00  0.00    +0.000 C 
BRANCH  17  18
ATOM     18  C   UNL     1     -45.713 -11.850 -35.010  0.00  0.00    +0.000 A 
ATOM     19  C   UNL     1     -46.807 -12.168 -35.821  0.00  0.00    +0.000 A 
ATOM     20  C   UNL     1     -46.665 -13.057 -36.897  0.00  0.00    +0.000 A 
ATOM     21  C   UNL     1     -45.415 -13.626 -37.153  0.00  0.00    +0.000 A 
ATOM     22  C   UNL     1     -44.320 -13.316 -36.345  0.00  0.00    +0.000 A 
ATOM     23  C   UNL     1     -44.459 -12.428 -35.266  0.00  0.00    +0.000 A 
BRANCH  20  24
ATOM     24  O   UNL     1     -47.745 -13.392 -37.718  0.00  0.00    +0.000 OA
ATOM     25  C   UNL     1     -47.644 -13.451 -39.135  0.00  0.00    +0.000 C 
ENDBRANCH  20  24
BRANCH  23  26
ATOM     26  O   UNL     1     -43.370 -12.105 -34.448  0.00  0.00    +0.000 OA
ATOM     27  C   UNL     1     -42.186 -11.499 -34.946  0.00  0.00    +0.000 C 
ENDBRANCH  23  26
ENDBRANCH  17  18
ENDBRANCH  15  17
ENDBRANCH   5  13
BRANCH   7  28
ATOM     28  S   UNL     1     -46.259  -3.113 -33.440  0.00  0.00    +0.000 S 
BRANCH  28  33
ATOM     29  C   UNL     1     -41.097  -0.092 -32.375  0.00  0.00    +0.000 C 
ATOM     30  C   UNL     1     -42.363  -0.823 -32.639  0.00  0.00    +0.000 A 
ATOM     31  C   UNL     1     -43.542  -0.436 -31.998  0.00  0.00    +0.000 A 
ATOM     32  C   UNL     1     -44.731  -1.128 -32.245  0.00  0.00    +0.000 A 
ATOM     33  C   UNL     1     -44.744  -2.206 -33.137  0.00  0.00    +0.000 A 
ATOM     34  C   UNL     1     -43.562  -2.597 -33.773  0.00  0.00    +0.000 A 
ATOM     35  C   UNL     1     -42.372  -1.904 -33.526  0.00  0.00    +0.000 A 
ENDBRANCH  28  33
ENDBRANCH   7  28
TORSDOF 7
ENDMDL
