MODEL 1
REMARK VINA RESULT:      -6.7      0.000      0.000
REMARK  Name = ZINC000096011142 ZINC96011142 CSC027537832 MCULE-9100666836 MolPort-028-801-490 PubChem-75455099
REMARK  4 active torsions:
REMARK  status: ('A' for Active; 'I' for Inactive)
REMARK    1  A    between atoms: C_1  and  C_28
REMARK    2  A    between atoms: C_10  and  C_15
REMARK    3  A    between atoms: N_17  and  C_20
REMARK    4  A    between atoms: C_28  and  O_31
REMARK                            x       y       z     vdW  Elec       q    Type
REMARK                         _______ _______ _______ _____ _____    ______ ____
ROOT
ATOM      1  C   UNL     1     -45.879  -9.449 -28.132  0.00  0.00    +0.000 A 
ATOM      2  C   UNL     1     -46.008  -9.394 -26.739  0.00  0.00    +0.000 A 
ATOM      3  C   UNL     1     -46.380  -8.204 -26.110  0.00  0.00    +0.000 A 
ATOM      4  C   UNL     1     -46.623  -7.057 -26.869  0.00  0.00    +0.000 A 
ATOM      5  N   UNL     1     -47.010  -5.847 -26.221  0.00  0.00    +0.000 N 
ATOM      6  C   UNL     1     -47.147  -4.639 -26.969  0.00  0.00    +0.000 C 
ATOM      7  O   UNL     1     -47.576  -3.598 -26.405  0.00  0.00    +0.000 OA
ATOM      8  C   UNL     1     -46.709  -4.585 -28.399  0.00  0.00    +0.000 C 
ATOM      9  N   UNL     1     -46.777  -5.903 -29.043  0.00  0.00    +0.000 N 
ATOM     10  C   UNL     1     -47.091  -5.980 -30.448  0.00  0.00    +0.000 C 
ATOM     11  O   UNL     1     -47.756  -6.959 -30.885  0.00  0.00    +0.000 OA
ATOM     12  C   UNL     1     -46.509  -7.096 -28.270  0.00  0.00    +0.000 A 
ATOM     13  C   UNL     1     -46.132  -8.298 -28.890  0.00  0.00    +0.000 A 
ATOM     14  H   UNL     1     -47.185  -5.845 -25.251  0.00  0.00    +0.000 HD
ENDROOT
BRANCH  10  15
ATOM     15  C   UNL     1     -46.658  -4.936 -31.397  0.00  0.00    +0.000 A 
ATOM     16  N   UNL     1     -45.486  -4.285 -31.325  0.00  0.00    +0.000 NA
ATOM     17  N   UNL     1     -45.434  -3.448 -32.347  0.00  0.00    +0.000 N 
ATOM     18  C   UNL     1     -46.559  -3.561 -33.084  0.00  0.00    +0.000 A 
ATOM     19  C   UNL     1     -47.376  -4.516 -32.503  0.00  0.00    +0.000 A 
BRANCH  17  20
ATOM     20  C   UNL     1     -44.334  -2.558 -32.636  0.00  0.00    +0.000 A 
ATOM     21  C   UNL     1     -44.386  -1.237 -32.153  0.00  0.00    +0.000 A 
ATOM     22  C   UNL     1     -43.351  -0.336 -32.406  0.00  0.00    +0.000 A 
ATOM     23  C   UNL     1     -42.242  -0.739 -33.147  0.00  0.00    +0.000 A 
ATOM     24  F   UNL     1     -41.237   0.134 -33.394  0.00  0.00    +0.000 F 
ATOM     25  C   UNL     1     -42.168  -2.044 -33.635  0.00  0.00    +0.000 A 
ATOM     26  C   UNL     1     -43.199  -2.958 -33.389  0.00  0.00    +0.000 A 
ATOM     27  C   UNL     1     -43.034  -4.333 -33.940  0.00  0.00    +0.000 C 
ENDBRANCH  17  20
ENDBRANCH  10  15
BRANCH   1  28
ATOM     28  C   UNL     1     -45.486 -10.706 -28.790  0.00  0.00    +0.000 C 
ATOM     29  O   UNL     1     -46.314 -11.654 -28.887  0.00  0.00    +0.000 OA
BRANCH  28  31
ATOM     30  C   UNL     1     -43.049 -10.419 -28.579  0.00  0.00    +0.000 C 
ATOM     31  O   UNL     1     -44.194 -10.843 -29.304  0.00  0.00    +0.000 OA
ENDBRANCH  28  31
ENDBRANCH   1  28
TORSDOF 4
ENDMDL
MODEL 2
REMARK VINA RESULT:      -6.6      6.678     11.867
REMARK  Name = ZINC000096011142 ZINC96011142 CSC027537832 MCULE-9100666836 MolPort-028-801-490 PubChem-75455099
REMARK  4 active torsions:
REMARK  status: ('A' for Active; 'I' for Inactive)
REMARK    1  A    between atoms: C_1  and  C_28
REMARK    2  A    between atoms: C_10  and  C_15
REMARK    3  A    between atoms: N_17  and  C_20
REMARK    4  A    between atoms: C_28  and  O_31
REMARK                            x       y       z     vdW  Elec       q    Type
REMARK                         _______ _______ _______ _____ _____    ______ ____
ROOT
ATOM      1  C   UNL     1     -46.388  -9.358 -29.885  0.00  0.00    +0.000 A 
ATOM      2  C   UNL     1     -45.873  -9.795 -31.112  0.00  0.00    +0.000 A 
ATOM      3  C   UNL     1     -45.250 -11.041 -31.212  0.00  0.00    +0.000 A 
ATOM      4  C   UNL     1     -45.133 -11.859 -30.086  0.00  0.00    +0.000 A 
ATOM      5  N   UNL     1     -44.503 -13.133 -30.198  0.00  0.00    +0.000 N 
ATOM      6  C   UNL     1     -44.270 -13.929 -29.035  0.00  0.00    +0.000 C 
ATOM      7  O   UNL     1     -43.796 -15.088 -29.155  0.00  0.00    +0.000 OA
ATOM      8  C   UNL     1     -44.515 -13.359 -27.672  0.00  0.00    +0.000 C 
ATOM      9  N   UNL     1     -45.536 -12.305 -27.695  0.00  0.00    +0.000 N 
ATOM     10  C   UNL     1     -46.393 -12.137 -26.548  0.00  0.00    +0.000 C 
ATOM     11  O   UNL     1     -47.587 -11.764 -26.711  0.00  0.00    +0.000 OA
ATOM     12  C   UNL     1     -45.654 -11.441 -28.848  0.00  0.00    +0.000 A 
ATOM     13  C   UNL     1     -46.276 -10.185 -28.759  0.00  0.00    +0.000 A 
ATOM     14  H   UNL     1     -44.227 -13.467 -31.083  0.00  0.00    +0.000 HD
ENDROOT
BRANCH  10  15
ATOM     15  C   UNL     1     -45.913 -12.397 -25.176  0.00  0.00    +0.000 A 
ATOM     16  N   UNL     1     -46.402 -13.355 -24.371  0.00  0.00    +0.000 NA
ATOM     17  N   UNL     1     -45.718 -13.309 -23.241  0.00  0.00    +0.000 N 
ATOM     18  C   UNL     1     -44.785 -12.335 -23.314  0.00  0.00    +0.000 A 
ATOM     19  C   UNL     1     -44.878 -11.724 -24.552  0.00  0.00    +0.000 A 
BRANCH  17  20
ATOM     20  C   UNL     1     -45.931 -14.176 -22.105  0.00  0.00    +0.000 A 
ATOM     21  C   UNL     1     -46.660 -13.687 -21.005  0.00  0.00    +0.000 A 
ATOM     22  C   UNL     1     -46.892 -14.483 -19.884  0.00  0.00    +0.000 A 
ATOM     23  C   UNL     1     -46.399 -15.785 -19.840  0.00  0.00    +0.000 A 
ATOM     24  F   UNL     1     -46.623 -16.560 -18.751  0.00  0.00    +0.000 F 
ATOM     25  C   UNL     1     -45.675 -16.293 -20.920  0.00  0.00    +0.000 A 
ATOM     26  C   UNL     1     -45.435 -15.505 -22.051  0.00  0.00    +0.000 A 
ATOM     27  C   UNL     1     -44.660 -16.128 -23.161  0.00  0.00    +0.000 C 
ENDBRANCH  17  20
ENDBRANCH  10  15
BRANCH   1  28
ATOM     28  C   UNL     1     -47.044  -8.043 -29.784  0.00  0.00    +0.000 C 
ATOM     29  O   UNL     1     -47.688  -7.581 -30.766  0.00  0.00    +0.000 OA
BRANCH  28  31
ATOM     30  C   UNL     1     -46.437  -5.987 -28.571  0.00  0.00    +0.000 C 
ATOM     31  O   UNL     1     -46.948  -7.312 -28.598  0.00  0.00    +0.000 OA
ENDBRANCH  28  31
ENDBRANCH   1  28
TORSDOF 4
ENDMDL
MODEL 3
REMARK VINA RESULT:      -6.6      7.731     10.915
REMARK  Name = ZINC000096011142 ZINC96011142 CSC027537832 MCULE-9100666836 MolPort-028-801-490 PubChem-75455099
REMARK  4 active torsions:
REMARK  status: ('A' for Active; 'I' for Inactive)
REMARK    1  A    between atoms: C_1  and  C_28
REMARK    2  A    between atoms: C_10  and  C_15
REMARK    3  A    between atoms: N_17  and  C_20
REMARK    4  A    between atoms: C_28  and  O_31
REMARK                            x       y       z     vdW  Elec       q    Type
REMARK                         _______ _______ _______ _____ _____    ______ ____
ROOT
ATOM      1  C   UNL     1     -44.587 -18.407 -21.872  0.00  0.00    +0.000 A 
ATOM      2  C   UNL     1     -44.922 -18.423 -20.513  0.00  0.00    +0.000 A 
ATOM      3  C   UNL     1     -45.557 -17.325 -19.929  0.00  0.00    +0.000 A 
ATOM      4  C   UNL     1     -45.858 -16.199 -20.700  0.00  0.00    +0.000 A 
ATOM      5  N   UNL     1     -46.513 -15.084 -20.098  0.00  0.00    +0.000 N 
ATOM      6  C   UNL     1     -46.722 -13.882 -20.840  0.00  0.00    +0.000 C 
ATOM      7  O   UNL     1     -47.380 -12.938 -20.332  0.00  0.00    +0.000 OA
ATOM      8  C   UNL     1     -46.095 -13.712 -22.190  0.00  0.00    +0.000 C 
ATOM      9  N   UNL     1     -45.869 -15.002 -22.855  0.00  0.00    +0.000 N 
ATOM     10  C   UNL     1     -45.962 -15.073 -24.292  0.00  0.00    +0.000 C 
ATOM     11  O   UNL     1     -46.401 -16.122 -24.837  0.00  0.00    +0.000 OA
ATOM     12  C   UNL     1     -45.539 -16.169 -22.069  0.00  0.00    +0.000 A 
ATOM     13  C   UNL     1     -44.898 -17.279 -22.643  0.00  0.00    +0.000 A 
ATOM     14  H   UNL     1     -46.825 -15.143 -19.166  0.00  0.00    +0.000 HD
ENDROOT
BRANCH  10  15
ATOM     15  C   UNL     1     -45.559 -13.942 -25.152  0.00  0.00    +0.000 A 
ATOM     16  N   UNL     1     -46.387 -13.295 -25.989  0.00  0.00    +0.000 NA
ATOM     17  N   UNL     1     -45.690 -12.333 -26.569  0.00  0.00    +0.000 N 
ATOM     18  C   UNL     1     -44.422 -12.347 -26.105  0.00  0.00    +0.000 A 
ATOM     19  C   UNL     1     -44.298 -13.373 -25.184  0.00  0.00    +0.000 A 
BRANCH  17  20
ATOM     20  C   UNL     1     -46.211 -11.402 -27.542  0.00  0.00    +0.000 A 
ATOM     21  C   UNL     1     -46.516 -10.090 -27.132  0.00  0.00    +0.000 A 
ATOM     22  C   UNL     1     -47.023  -9.153 -28.031  0.00  0.00    +0.000 A 
ATOM     23  C   UNL     1     -47.236  -9.509 -29.362  0.00  0.00    +0.000 A 
ATOM     24  F   UNL     1     -47.729  -8.601 -30.237  0.00  0.00    +0.000 F 
ATOM     25  C   UNL     1     -46.940 -10.803 -29.792  0.00  0.00    +0.000 A 
ATOM     26  C   UNL     1     -46.431 -11.753 -28.900  0.00  0.00    +0.000 A 
ATOM     27  C   UNL     1     -46.135 -13.108 -29.446  0.00  0.00    +0.000 C 
ENDBRANCH  17  20
ENDBRANCH  10  15
BRANCH   1  28
ATOM     28  C   UNL     1     -43.917 -19.568 -22.483  0.00  0.00    +0.000 C 
ATOM     29  O   UNL     1     -43.137 -20.282 -21.794  0.00  0.00    +0.000 OA
BRANCH  28  31
ATOM     30  C   UNL     1     -43.114 -19.823 -24.797  0.00  0.00    +0.000 C 
ATOM     31  O   UNL     1     -44.149 -19.872 -23.826  0.00  0.00    +0.000 OA
ENDBRANCH  28  31
ENDBRANCH   1  28
TORSDOF 4
ENDMDL
