MODEL 1
REMARK VINA RESULT:      -5.9      0.000      0.000
REMARK  Name = ZINC000096181382 ZINC96181382 PubChem-97457252
REMARK  4 active torsions:
REMARK  status: ('A' for Active; 'I' for Inactive)
REMARK    1  A    between atoms: C_1  and  C_12
REMARK    2  A    between atoms: C_2  and  C_15
REMARK    3  A    between atoms: N_17  and  C_19
REMARK    4  A    between atoms: C_19  and  C_20
REMARK                            x       y       z     vdW  Elec       q    Type
REMARK                         _______ _______ _______ _____ _____    ______ ____
ROOT
ATOM      1  C   UNL     1     -44.227 -17.023 -22.933  0.00  0.00    +0.000 C 
ATOM      2  C   UNL     1     -45.240 -18.122 -22.564  0.00  0.00    +0.000 C 
ATOM      3  C   UNL     1     -45.664 -18.831 -23.857  0.00  0.00    +0.000 C 
ATOM      4  C   UNL     1     -44.987 -18.039 -24.903  0.00  0.00    +0.000 C 
ATOM      5  O   UNL     1     -45.082 -18.284 -26.134  0.00  0.00    +0.000 OA
ATOM      6  N   UNL     1     -44.195 -16.992 -24.384  0.00  0.00    +0.000 N 
ATOM      7  C   UNL     1     -43.211 -16.249 -25.155  0.00  0.00    +0.000 C 
ENDROOT
BRANCH   1  12
ATOM      8  C   UNL     1     -45.772 -11.906 -20.723  0.00  0.00    +0.000 C 
ATOM      9  C   UNL     1     -45.383 -13.221 -21.293  0.00  0.00    +0.000 A 
ATOM     10  C   UNL     1     -46.364 -14.084 -21.790  0.00  0.00    +0.000 A 
ATOM     11  C   UNL     1     -45.999 -15.322 -22.327  0.00  0.00    +0.000 A 
ATOM     12  C   UNL     1     -44.647 -15.699 -22.370  0.00  0.00    +0.000 A 
ATOM     13  C   UNL     1     -43.670 -14.834 -21.868  0.00  0.00    +0.000 A 
ATOM     14  C   UNL     1     -44.037 -13.595 -21.331  0.00  0.00    +0.000 A 
ENDBRANCH   1  12
BRANCH   2  15
ATOM     15  C   UNL     1     -44.686 -19.080 -21.551  0.00  0.00    +0.000 C 
ATOM     16  O   UNL     1     -43.689 -19.778 -21.869  0.00  0.00    +0.000 OA
ATOM     17  N   UNL     1     -45.247 -19.231 -20.241  0.00  0.00    +0.000 N 
ATOM     18  H   UNL     1     -44.829 -19.880 -19.630  0.00  0.00    +0.000 HD
BRANCH  17  19
ATOM     19  C   UNL     1     -46.400 -18.484 -19.764  0.00  0.00    +0.000 C 
BRANCH  19  20
ATOM     20  C   UNL     1     -45.952 -17.209 -19.142  0.00  0.00    +0.000 A 
ATOM     21  C   UNL     1     -46.895 -16.249 -18.756  0.00  0.00    +0.000 A 
ATOM     22  C   UNL     1     -46.475 -15.060 -18.153  0.00  0.00    +0.000 A 
ATOM     23  C   UNL     1     -45.113 -14.831 -17.932  0.00  0.00    +0.000 A 
ATOM     24  C   UNL     1     -44.172 -15.791 -18.311  0.00  0.00    +0.000 A 
ATOM     25  C   UNL     1     -44.591 -16.982 -18.914  0.00  0.00    +0.000 A 
ENDBRANCH  19  20
ENDBRANCH  17  19
ENDBRANCH   2  15
TORSDOF 4
ENDMDL
MODEL 2
REMARK VINA RESULT:      -5.6     11.923     14.316
REMARK  Name = ZINC000096181382 ZINC96181382 PubChem-97457252
REMARK  4 active torsions:
REMARK  status: ('A' for Active; 'I' for Inactive)
REMARK    1  A    between atoms: C_1  and  C_12
REMARK    2  A    between atoms: C_2  and  C_15
REMARK    3  A    between atoms: N_17  and  C_19
REMARK    4  A    between atoms: C_19  and  C_20
REMARK                            x       y       z     vdW  Elec       q    Type
REMARK                         _______ _______ _______ _____ _____    ______ ____
ROOT
ATOM      1  C   UNL     1     -45.315  -5.258 -31.901  0.00  0.00    +0.000 C 
ATOM      2  C   UNL     1     -46.529  -5.711 -32.731  0.00  0.00    +0.000 C 
ATOM      3  C   UNL     1     -46.885  -4.584 -33.709  0.00  0.00    +0.000 C 
ATOM      4  C   UNL     1     -45.957  -3.504 -33.316  0.00  0.00    +0.000 C 
ATOM      5  O   UNL     1     -45.925  -2.375 -33.872  0.00  0.00    +0.000 OA
ATOM      6  N   UNL     1     -45.085  -3.873 -32.268  0.00  0.00    +0.000 N 
ATOM      7  C   UNL     1     -43.902  -3.119 -31.884  0.00  0.00    +0.000 C 
ENDROOT
BRANCH   1  12
ATOM      8  C   UNL     1     -46.438  -5.721 -26.245  0.00  0.00    +0.000 C 
ATOM      9  C   UNL     1     -46.142  -5.606 -27.697  0.00  0.00    +0.000 A 
ATOM     10  C   UNL     1     -44.919  -6.058 -28.198  0.00  0.00    +0.000 A 
ATOM     11  C   UNL     1     -44.640  -5.952 -29.564  0.00  0.00    +0.000 A 
ATOM     12  C   UNL     1     -45.590  -5.393 -30.434  0.00  0.00    +0.000 A 
ATOM     13  C   UNL     1     -46.811  -4.939 -29.927  0.00  0.00    +0.000 A 
ATOM     14  C   UNL     1     -47.088  -5.046 -28.560  0.00  0.00    +0.000 A 
ENDBRANCH   1  12
BRANCH   2  15
ATOM     15  C   UNL     1     -46.274  -7.010 -33.437  0.00  0.00    +0.000 C 
ATOM     16  O   UNL     1     -45.515  -7.008 -34.441  0.00  0.00    +0.000 OA
ATOM     17  N   UNL     1     -46.861  -8.248 -33.016  0.00  0.00    +0.000 N 
ATOM     18  H   UNL     1     -46.646  -9.061 -33.529  0.00  0.00    +0.000 HD
BRANCH  17  19
ATOM     19  C   UNL     1     -47.756  -8.373 -31.876  0.00  0.00    +0.000 C 
BRANCH  19  20
ATOM     20  C   UNL     1     -46.994  -8.829 -30.684  0.00  0.00    +0.000 A 
ATOM     21  C   UNL     1     -45.677  -9.280 -30.826  0.00  0.00    +0.000 A 
ATOM     22  C   UNL     1     -44.953  -9.689 -29.701  0.00  0.00    +0.000 A 
ATOM     23  C   UNL     1     -45.543  -9.644 -28.435  0.00  0.00    +0.000 A 
ATOM     24  C   UNL     1     -46.856  -9.187 -28.291  0.00  0.00    +0.000 A 
ATOM     25  C   UNL     1     -47.581  -8.776 -29.415  0.00  0.00    +0.000 A 
ENDBRANCH  19  20
ENDBRANCH  17  19
ENDBRANCH   2  15
TORSDOF 4
ENDMDL
MODEL 3
REMARK VINA RESULT:      -5.4      2.706      5.678
REMARK  Name = ZINC000096181382 ZINC96181382 PubChem-97457252
REMARK  4 active torsions:
REMARK  status: ('A' for Active; 'I' for Inactive)
REMARK    1  A    between atoms: C_1  and  C_12
REMARK    2  A    between atoms: C_2  and  C_15
REMARK    3  A    between atoms: N_17  and  C_19
REMARK    4  A    between atoms: C_19  and  C_20
REMARK                            x       y       z     vdW  Elec       q    Type
REMARK                         _______ _______ _______ _____ _____    ______ ____
ROOT
ATOM      1  C   UNL     1     -42.861 -20.012 -21.001  0.00  0.00    +0.000 C 
ATOM      2  C   UNL     1     -41.733 -20.121 -22.043  0.00  0.00    +0.000 C 
ATOM      3  C   UNL     1     -40.417 -20.370 -21.295  0.00  0.00    +0.000 C 
ATOM      4  C   UNL     1     -40.820 -20.267 -19.878  0.00  0.00    +0.000 C 
ATOM      5  O   UNL     1     -40.021 -20.398 -18.915  0.00  0.00    +0.000 OA
ATOM      6  N   UNL     1     -42.203 -20.032 -19.708  0.00  0.00    +0.000 N 
ATOM      7  C   UNL     1     -42.906 -20.170 -18.443  0.00  0.00    +0.000 C 
ENDROOT
BRANCH   1  12
ATOM      8  C   UNL     1     -45.816 -15.093 -21.728  0.00  0.00    +0.000 C 
ATOM      9  C   UNL     1     -45.064 -16.361 -21.541  0.00  0.00    +0.000 A 
ATOM     10  C   UNL     1     -45.746 -17.533 -21.204  0.00  0.00    +0.000 A 
ATOM     11  C   UNL     1     -45.039 -18.726 -21.028  0.00  0.00    +0.000 A 
ATOM     12  C   UNL     1     -43.645 -18.750 -21.192  0.00  0.00    +0.000 A 
ATOM     13  C   UNL     1     -42.967 -17.573 -21.526  0.00  0.00    +0.000 A 
ATOM     14  C   UNL     1     -43.676 -16.379 -21.702  0.00  0.00    +0.000 A 
ENDBRANCH   1  12
BRANCH   2  15
ATOM     15  C   UNL     1     -42.012 -21.185 -23.063  0.00  0.00    +0.000 C 
ATOM     16  O   UNL     1     -42.086 -22.381 -22.678  0.00  0.00    +0.000 OA
ATOM     17  N   UNL     1     -42.194 -20.894 -24.455  0.00  0.00    +0.000 N 
ATOM     18  H   UNL     1     -42.375 -21.645 -25.066  0.00  0.00    +0.000 HD
BRANCH  17  19
ATOM     19  C   UNL     1     -42.127 -19.554 -25.017  0.00  0.00    +0.000 C 
BRANCH  19  20
ATOM     20  C   UNL     1     -43.477 -18.931 -24.999  0.00  0.00    +0.000 A 
ATOM     21  C   UNL     1     -44.604 -19.711 -24.714  0.00  0.00    +0.000 A 
ATOM     22  C   UNL     1     -45.871 -19.121 -24.677  0.00  0.00    +0.000 A 
ATOM     23  C   UNL     1     -46.012 -17.751 -24.920  0.00  0.00    +0.000 A 
ATOM     24  C   UNL     1     -44.887 -16.971 -25.198  0.00  0.00    +0.000 A 
ATOM     25  C   UNL     1     -43.618 -17.560 -25.235  0.00  0.00    +0.000 A 
ENDBRANCH  19  20
ENDBRANCH  17  19
ENDBRANCH   2  15
TORSDOF 4
ENDMDL
