MODEL 1
REMARK VINA RESULT:      -6.5      0.000      0.000
REMARK  Name = ZINC000009380298 ZINC09380298 MolPort-002-580-065 PubChem-1960546
REMARK  4 active torsions:
REMARK  status: ('A' for Active; 'I' for Inactive)
REMARK    1  A    between atoms: N_1  and  C_29
REMARK    2  A    between atoms: C_8  and  C_12
REMARK    3  A    between atoms: C_25  and  O_32
REMARK    4  A    between atoms: C_28  and  O_33
REMARK                            x       y       z     vdW  Elec       q    Type
REMARK                         _______ _______ _______ _____ _____    ______ ____
ROOT
ATOM      1  N   UNL     1     -45.607  -5.526 -32.114  0.00  0.00    +0.000 N 
ATOM      2  C   UNL     1     -46.368  -6.002 -33.248  0.00  0.00    +0.000 C 
ATOM      3  S   UNL     1     -46.936  -4.980 -34.397  0.00  0.00    +0.000 S 
ATOM      4  N   UNL     1     -46.698  -7.388 -33.354  0.00  0.00    +0.000 N 
ATOM      5  C   UNL     1     -46.400  -8.310 -32.308  0.00  0.00    +0.000 C 
ATOM      6  O   UNL     1     -46.723  -9.521 -32.443  0.00  0.00    +0.000 OA
ATOM      7  C   UNL     1     -45.752  -7.833 -31.074  0.00  0.00    +0.000 C 
ATOM      8  C   UNL     1     -45.687  -8.663 -30.018  0.00  0.00    +0.000 C 
ATOM      9  C   UNL     1     -45.190  -6.460 -31.099  0.00  0.00    +0.000 C 
ATOM     10  O   UNL     1     -44.281  -6.131 -30.286  0.00  0.00    +0.000 OA
ATOM     11  H   UNL     1     -47.143  -7.714 -34.171  0.00  0.00    +0.000 HD
ENDROOT
BRANCH   8  12
ATOM     12  C   UNL     1     -45.247  -8.345 -28.648  0.00  0.00    +0.000 A 
ATOM     13  C   UNL     1     -43.905  -8.472 -28.262  0.00  0.00    +0.000 A 
ATOM     14  C   UNL     1     -43.500  -8.109 -26.976  0.00  0.00    +0.000 A 
ATOM     15  C   UNL     1     -44.437  -7.567 -26.078  0.00  0.00    +0.000 A 
ATOM     16  N   UNL     1     -44.031  -7.206 -24.746  0.00  0.00    +0.000 N 
ATOM     17  C   UNL     1     -45.035  -6.890 -23.737  0.00  0.00    +0.000 C 
ATOM     18  C   UNL     1     -46.149  -6.061 -24.367  0.00  0.00    +0.000 C 
ATOM     19  C   UNL     1     -46.794  -6.825 -25.527  0.00  0.00    +0.000 C 
ATOM     20  C   UNL     1     -45.776  -7.395 -26.476  0.00  0.00    +0.000 A 
ATOM     21  C   UNL     1     -46.171  -7.785 -27.759  0.00  0.00    +0.000 A 
ATOM     22  C   UNL     1     -42.615  -7.179 -24.387  0.00  0.00    +0.000 C 
ATOM     23  C   UNL     1     -41.885  -8.333 -25.071  0.00  0.00    +0.000 C 
ATOM     24  C   UNL     1     -42.054  -8.230 -26.587  0.00  0.00    +0.000 C 
ENDBRANCH   8  12
BRANCH   1  29
ATOM     25  C   UNL     1     -43.628  -2.370 -32.548  0.00  0.00    +0.000 A 
ATOM     26  C   UNL     1     -44.368  -1.481 -31.765  0.00  0.00    +0.000 A 
ATOM     27  C   UNL     1     -45.517  -1.915 -31.101  0.00  0.00    +0.000 A 
ATOM     28  C   UNL     1     -45.945  -3.248 -31.212  0.00  0.00    +0.000 A 
ATOM     29  C   UNL     1     -45.206  -4.147 -32.004  0.00  0.00    +0.000 A 
ATOM     30  C   UNL     1     -44.050  -3.703 -32.661  0.00  0.00    +0.000 A 
BRANCH  25  32
ATOM     31  C   UNL     1     -41.901  -0.640 -32.927  0.00  0.00    +0.000 C 
ATOM     32  O   UNL     1     -42.483  -1.907 -33.201  0.00  0.00    +0.000 OA
ENDBRANCH  25  32
BRANCH  28  33
ATOM     33  O   UNL     1     -47.098  -3.694 -30.555  0.00  0.00    +0.000 OA
ATOM     34  C   UNL     1     -47.089  -4.159 -29.213  0.00  0.00    +0.000 C 
ENDBRANCH  28  33
ENDBRANCH   1  29
TORSDOF 4
ENDMDL
MODEL 2
REMARK VINA RESULT:      -6.4      0.182      2.030
REMARK  Name = ZINC000009380298 ZINC09380298 MolPort-002-580-065 PubChem-1960546
REMARK  4 active torsions:
REMARK  status: ('A' for Active; 'I' for Inactive)
REMARK    1  A    between atoms: N_1  and  C_29
REMARK    2  A    between atoms: C_8  and  C_12
REMARK    3  A    between atoms: C_25  and  O_32
REMARK    4  A    between atoms: C_28  and  O_33
REMARK                            x       y       z     vdW  Elec       q    Type
REMARK                         _______ _______ _______ _____ _____    ______ ____
ROOT
ATOM      1  N   UNL     1     -45.615  -5.435 -32.081  0.00  0.00    +0.000 N 
ATOM      2  C   UNL     1     -46.351  -5.955 -33.211  0.00  0.00    +0.000 C 
ATOM      3  S   UNL     1     -46.914  -4.977 -34.400  0.00  0.00    +0.000 S 
ATOM      4  N   UNL     1     -46.661  -7.348 -33.280  0.00  0.00    +0.000 N 
ATOM      5  C   UNL     1     -46.367  -8.234 -32.201  0.00  0.00    +0.000 C 
ATOM      6  O   UNL     1     -46.671  -9.453 -32.303  0.00  0.00    +0.000 OA
ATOM      7  C   UNL     1     -45.745  -7.710 -30.973  0.00  0.00    +0.000 C 
ATOM      8  C   UNL     1     -45.685  -8.506 -29.890  0.00  0.00    +0.000 C 
ATOM      9  C   UNL     1     -45.201  -6.331 -31.031  0.00  0.00    +0.000 C 
ATOM     10  O   UNL     1     -44.310  -5.964 -30.215  0.00  0.00    +0.000 OA
ATOM     11  H   UNL     1     -47.088  -7.705 -34.092  0.00  0.00    +0.000 HD
ENDROOT
BRANCH   8  12
ATOM     12  C   UNL     1     -45.271  -8.140 -28.524  0.00  0.00    +0.000 A 
ATOM     13  C   UNL     1     -46.186  -7.622 -27.596  0.00  0.00    +0.000 A 
ATOM     14  C   UNL     1     -45.786  -7.336 -26.289  0.00  0.00    +0.000 A 
ATOM     15  C   UNL     1     -44.466  -7.614 -25.889  0.00  0.00    +0.000 A 
ATOM     16  N   UNL     1     -44.042  -7.306 -24.550  0.00  0.00    +0.000 N 
ATOM     17  C   UNL     1     -42.626  -7.350 -24.205  0.00  0.00    +0.000 C 
ATOM     18  C   UNL     1     -41.972  -8.552 -24.877  0.00  0.00    +0.000 C 
ATOM     19  C   UNL     1     -42.139  -8.473 -26.398  0.00  0.00    +0.000 C 
ATOM     20  C   UNL     1     -43.557  -8.175 -26.805  0.00  0.00    +0.000 A 
ATOM     21  C   UNL     1     -43.966  -8.435 -28.115  0.00  0.00    +0.000 A 
ATOM     22  C   UNL     1     -45.019  -6.925 -23.534  0.00  0.00    +0.000 C 
ATOM     23  C   UNL     1     -46.102  -6.050 -24.161  0.00  0.00    +0.000 C 
ATOM     24  C   UNL     1     -46.785  -6.805 -25.302  0.00  0.00    +0.000 C 
ENDBRANCH   8  12
BRANCH   1  29
ATOM     25  C   UNL     1     -43.707  -2.253 -32.635  0.00  0.00    +0.000 A 
ATOM     26  C   UNL     1     -44.434  -1.364 -31.841  0.00  0.00    +0.000 A 
ATOM     27  C   UNL     1     -45.552  -1.806 -31.130  0.00  0.00    +0.000 A 
ATOM     28  C   UNL     1     -45.960  -3.148 -31.205  0.00  0.00    +0.000 A 
ATOM     29  C   UNL     1     -45.234  -4.047 -32.007  0.00  0.00    +0.000 A 
ATOM     30  C   UNL     1     -44.109  -3.595 -32.712  0.00  0.00    +0.000 A 
BRANCH  25  32
ATOM     31  C   UNL     1     -41.796  -0.701 -32.873  0.00  0.00    +0.000 C 
ATOM     32  O   UNL     1     -42.593  -1.782 -33.335  0.00  0.00    +0.000 OA
ENDBRANCH  25  32
BRANCH  28  33
ATOM     33  O   UNL     1     -47.082  -3.602 -30.501  0.00  0.00    +0.000 OA
ATOM     34  C   UNL     1     -47.026  -4.005 -29.140  0.00  0.00    +0.000 C 
ENDBRANCH  28  33
ENDBRANCH   1  29
TORSDOF 4
ENDMDL
MODEL 3
REMARK VINA RESULT:      -6.3      5.344      8.485
REMARK  Name = ZINC000009380298 ZINC09380298 MolPort-002-580-065 PubChem-1960546
REMARK  4 active torsions:
REMARK  status: ('A' for Active; 'I' for Inactive)
REMARK    1  A    between atoms: N_1  and  C_29
REMARK    2  A    between atoms: C_8  and  C_12
REMARK    3  A    between atoms: C_25  and  O_32
REMARK    4  A    between atoms: C_28  and  O_33
REMARK                            x       y       z     vdW  Elec       q    Type
REMARK                         _______ _______ _______ _____ _____    ______ ____
ROOT
ATOM      1  N   UNL     1     -37.904  -3.746 -34.004  0.00  0.00    +0.000 N 
ATOM      2  C   UNL     1     -37.074  -3.714 -35.188  0.00  0.00    +0.000 C 
ATOM      3  S   UNL     1     -35.563  -3.077 -35.167  0.00  0.00    +0.000 S 
ATOM      4  N   UNL     1     -37.589  -4.187 -36.433  0.00  0.00    +0.000 N 
ATOM      5  C   UNL     1     -38.951  -4.586 -36.576  0.00  0.00    +0.000 C 
ATOM      6  O   UNL     1     -39.364  -4.984 -37.699  0.00  0.00    +0.000 OA
ATOM      7  C   UNL     1     -39.864  -4.496 -35.423  0.00  0.00    +0.000 C 
ATOM      8  C   UNL     1     -41.183  -4.657 -35.632  0.00  0.00    +0.000 C 
ATOM      9  C   UNL     1     -39.248  -4.257 -34.095  0.00  0.00    +0.000 C 
ATOM     10  O   UNL     1     -39.864  -4.579 -33.041  0.00  0.00    +0.000 OA
ATOM     11  H   UNL     1     -36.989  -4.238 -37.212  0.00  0.00    +0.000 HD
ENDROOT
BRANCH   8  12
ATOM     12  C   UNL     1     -42.280  -4.441 -34.672  0.00  0.00    +0.000 A 
ATOM     13  C   UNL     1     -42.667  -3.150 -34.280  0.00  0.00    +0.000 A 
ATOM     14  C   UNL     1     -43.746  -2.966 -33.414  0.00  0.00    +0.000 A 
ATOM     15  C   UNL     1     -44.480  -4.081 -32.970  0.00  0.00    +0.000 A 
ATOM     16  N   UNL     1     -45.583  -3.899 -32.064  0.00  0.00    +0.000 N 
ATOM     17  C   UNL     1     -46.181  -5.052 -31.402  0.00  0.00    +0.000 C 
ATOM     18  C   UNL     1     -46.279  -6.213 -32.386  0.00  0.00    +0.000 C 
ATOM     19  C   UNL     1     -44.892  -6.578 -32.925  0.00  0.00    +0.000 C 
ATOM     20  C   UNL     1     -44.124  -5.373 -33.396  0.00  0.00    +0.000 A 
ATOM     21  C   UNL     1     -43.027  -5.544 -34.244  0.00  0.00    +0.000 A 
ATOM     22  C   UNL     1     -46.095  -2.561 -31.782  0.00  0.00    +0.000 C 
ATOM     23  C   UNL     1     -44.938  -1.568 -31.708  0.00  0.00    +0.000 C 
ATOM     24  C   UNL     1     -44.160  -1.576 -33.025  0.00  0.00    +0.000 C 
ENDBRANCH   8  12
BRANCH   1  29
ATOM     25  C   UNL     1     -37.055  -1.577 -31.064  0.00  0.00    +0.000 A 
ATOM     26  C   UNL     1     -36.374  -2.485 -30.251  0.00  0.00    +0.000 A 
ATOM     27  C   UNL     1     -36.199  -3.808 -30.663  0.00  0.00    +0.000 A 
ATOM     28  C   UNL     1     -36.706  -4.243 -31.898  0.00  0.00    +0.000 A 
ATOM     29  C   UNL     1     -37.397  -3.334 -32.720  0.00  0.00    +0.000 A 
ATOM     30  C   UNL     1     -37.562  -2.006 -32.299  0.00  0.00    +0.000 A 
BRANCH  25  32
ATOM     31  C   UNL     1     -38.471   0.403 -30.625  0.00  0.00    +0.000 C 
ATOM     32  O   UNL     1     -37.215  -0.260 -30.625  0.00  0.00    +0.000 OA
ENDBRANCH  25  32
BRANCH  28  33
ATOM     33  O   UNL     1     -36.541  -5.567 -32.320  0.00  0.00    +0.000 OA
ATOM     34  C   UNL     1     -37.250  -6.655 -31.743  0.00  0.00    +0.000 C 
ENDBRANCH  28  33
ENDBRANCH   1  29
TORSDOF 4
ENDMDL
