MODEL 1
REMARK VINA RESULT:      -7.1      0.000      0.000
REMARK  Name = ZINC000031810754
REMARK  1 active torsions:
REMARK  status: ('A' for Active; 'I' for Inactive)
REMARK    1  A    between atoms: C_7  and  C_24
REMARK                            x       y       z     vdW  Elec       q    Type
REMARK                         _______ _______ _______ _____ _____    ______ ____
ROOT
ATOM      1  C   UNL     1     -42.927  -5.755 -34.947  0.00  0.00    +0.000 C 
ATOM      2  C   UNL     1     -43.738  -6.160 -33.765  0.00  0.00    +0.000 A 
ATOM      3  N   UNL     1     -43.579  -7.332 -33.125  0.00  0.00    +0.000 NA
ATOM      4  N   UNL     1     -44.447  -7.363 -32.126  0.00  0.00    +0.000 N 
ATOM      5  C   UNL     1     -45.148  -6.206 -32.093  0.00  0.00    +0.000 A 
ATOM      6  C   UNL     1     -44.728  -5.407 -33.156  0.00  0.00    +0.000 A 
ATOM      7  C   UNL     1     -45.120  -4.019 -33.578  0.00  0.00    +0.000 C 
ATOM      8  S   UNL     1     -46.853  -3.578 -33.242  0.00  0.00    +0.000 S 
ATOM      9  C   UNL     1     -46.563  -3.431 -31.464  0.00  0.00    +0.000 C 
ATOM     10  C   UNL     1     -46.852  -4.722 -30.795  0.00  0.00    +0.000 C 
ATOM     11  O   UNL     1     -47.756  -4.754 -29.921  0.00  0.00    +0.000 OA
ATOM     12  N   UNL     1     -46.119  -5.920 -31.072  0.00  0.00    +0.000 N 
ATOM     13  H   UNL     1     -46.312  -6.671 -30.465  0.00  0.00    +0.000 HD
ATOM     14  C   UNL     1     -44.531  -8.464 -31.211  0.00  0.00    +0.000 A 
ATOM     15  N   UNL     1     -43.394  -9.105 -30.804  0.00  0.00    +0.000 NA
ATOM     16  C   UNL     1     -43.442 -10.178 -29.952  0.00  0.00    +0.000 A 
ATOM     17  N   UNL     1     -44.641 -10.650 -29.496  0.00  0.00    +0.000 NA
ATOM     18  C   UNL     1     -45.770 -10.025 -29.910  0.00  0.00    +0.000 A 
ATOM     19  N   UNL     1     -47.028 -10.377 -29.619  0.00  0.00    +0.000 N 
ATOM     20  C   UNL     1     -47.756  -9.473 -30.330  0.00  0.00    +0.000 A 
ATOM     21  N   UNL     1     -47.000  -8.595 -31.043  0.00  0.00    +0.000 NA
ATOM     22  C   UNL     1     -45.747  -8.967 -30.745  0.00  0.00    +0.000 A 
ATOM     23  H   UNL     1     -47.346 -11.104 -29.037  0.00  0.00    +0.000 HD
ENDROOT
BRANCH   7  24
ATOM     24  C   UNL     1     -44.136  -2.946 -33.200  0.00  0.00    +0.000 A 
ATOM     25  C   UNL     1     -44.375  -1.629 -33.610  0.00  0.00    +0.000 A 
ATOM     26  C   UNL     1     -43.483  -0.609 -33.265  0.00  0.00    +0.000 A 
ATOM     27  C   UNL     1     -42.348  -0.902 -32.505  0.00  0.00    +0.000 A 
ATOM     28  F   UNL     1     -41.485   0.087 -32.171  0.00  0.00    +0.000 F 
ATOM     29  C   UNL     1     -42.104  -2.213 -32.087  0.00  0.00    +0.000 A 
ATOM     30  C   UNL     1     -42.995  -3.233 -32.433  0.00  0.00    +0.000 A 
ENDBRANCH   7  24
TORSDOF 1
ENDMDL
MODEL 2
REMARK VINA RESULT:      -6.9      2.704      3.283
REMARK  Name = ZINC000031810754
REMARK  1 active torsions:
REMARK  status: ('A' for Active; 'I' for Inactive)
REMARK    1  A    between atoms: C_7  and  C_24
REMARK                            x       y       z     vdW  Elec       q    Type
REMARK                         _______ _______ _______ _____ _____    ______ ____
ROOT
ATOM      1  C   UNL     1     -47.422  -4.325 -34.420  0.00  0.00    +0.000 C 
ATOM      2  C   UNL     1     -46.668  -5.495 -33.893  0.00  0.00    +0.000 A 
ATOM      3  N   UNL     1     -46.589  -6.675 -34.534  0.00  0.00    +0.000 NA
ATOM      4  N   UNL     1     -45.843  -7.482 -33.797  0.00  0.00    +0.000 N 
ATOM      5  C   UNL     1     -45.409  -6.826 -32.697  0.00  0.00    +0.000 A 
ATOM      6  C   UNL     1     -45.941  -5.537 -32.714  0.00  0.00    +0.000 A 
ATOM      7  C   UNL     1     -45.765  -4.370 -31.784  0.00  0.00    +0.000 C 
ATOM      8  S   UNL     1     -45.526  -4.815 -30.035  0.00  0.00    +0.000 S 
ATOM      9  C   UNL     1     -43.841  -5.404 -30.325  0.00  0.00    +0.000 C 
ATOM     10  C   UNL     1     -43.854  -6.860 -30.605  0.00  0.00    +0.000 C 
ATOM     11  O   UNL     1     -43.224  -7.624 -29.829  0.00  0.00    +0.000 OA
ATOM     12  N   UNL     1     -44.519  -7.425 -31.739  0.00  0.00    +0.000 N 
ATOM     13  H   UNL     1     -44.336  -8.381 -31.890  0.00  0.00    +0.000 HD
ATOM     14  C   UNL     1     -45.524  -8.821 -34.200  0.00  0.00    +0.000 A 
ATOM     15  N   UNL     1     -45.279  -9.101 -35.515  0.00  0.00    +0.000 NA
ATOM     16  C   UNL     1     -44.999 -10.374 -35.938  0.00  0.00    +0.000 A 
ATOM     17  N   UNL     1     -44.975 -11.412 -35.048  0.00  0.00    +0.000 NA
ATOM     18  C   UNL     1     -45.233 -11.139 -33.746  0.00  0.00    +0.000 A 
ATOM     19  N   UNL     1     -45.310 -12.025 -32.746  0.00  0.00    +0.000 N 
ATOM     20  C   UNL     1     -45.652 -11.242 -31.686  0.00  0.00    +0.000 A 
ATOM     21  N   UNL     1     -45.791  -9.925 -31.997  0.00  0.00    +0.000 NA
ATOM     22  C   UNL     1     -45.507  -9.894 -33.307  0.00  0.00    +0.000 A 
ATOM     23  H   UNL     1     -45.158 -12.997 -32.770  0.00  0.00    +0.000 HD
ENDROOT
BRANCH   7  24
ATOM     24  C   UNL     1     -44.818  -3.311 -32.276  0.00  0.00    +0.000 A 
ATOM     25  C   UNL     1     -44.908  -2.019 -31.745  0.00  0.00    +0.000 A 
ATOM     26  C   UNL     1     -44.033  -1.017 -32.177  0.00  0.00    +0.000 A 
ATOM     27  C   UNL     1     -43.063  -1.303 -33.140  0.00  0.00    +0.000 A 
ATOM     28  F   UNL     1     -42.217  -0.331 -33.557  0.00  0.00    +0.000 F 
ATOM     29  C   UNL     1     -42.964  -2.592 -33.672  0.00  0.00    +0.000 A 
ATOM     30  C   UNL     1     -43.839  -3.593 -33.242  0.00  0.00    +0.000 A 
ENDBRANCH   7  24
TORSDOF 1
ENDMDL
MODEL 3
REMARK VINA RESULT:      -6.7      3.892      7.154
REMARK  Name = ZINC000031810754
REMARK  1 active torsions:
REMARK  status: ('A' for Active; 'I' for Inactive)
REMARK    1  A    between atoms: C_7  and  C_24
REMARK                            x       y       z     vdW  Elec       q    Type
REMARK                         _______ _______ _______ _____ _____    ______ ____
ROOT
ATOM      1  C   UNL     1     -42.433  -6.819 -27.528  0.00  0.00    +0.000 C 
ATOM      2  C   UNL     1     -42.943  -6.165 -28.765  0.00  0.00    +0.000 A 
ATOM      3  N   UNL     1     -42.149  -5.785 -29.783  0.00  0.00    +0.000 NA
ATOM      4  N   UNL     1     -42.922  -5.251 -30.715  0.00  0.00    +0.000 N 
ATOM      5  C   UNL     1     -44.216  -5.309 -30.325  0.00  0.00    +0.000 A 
ATOM      6  C   UNL     1     -44.267  -5.879 -29.053  0.00  0.00    +0.000 A 
ATOM      7  C   UNL     1     -45.424  -6.227 -28.160  0.00  0.00    +0.000 C 
ATOM      8  S   UNL     1     -46.855  -5.111 -28.292  0.00  0.00    +0.000 S 
ATOM      9  C   UNL     1     -47.332  -5.772 -29.906  0.00  0.00    +0.000 C 
ATOM     10  C   UNL     1     -46.714  -4.967 -30.986  0.00  0.00    +0.000 C 
ATOM     11  O   UNL     1     -47.470  -4.378 -31.801  0.00  0.00    +0.000 OA
ATOM     12  N   UNL     1     -45.297  -4.866 -31.163  0.00  0.00    +0.000 N 
ATOM     13  H   UNL     1     -45.017  -4.420 -31.995  0.00  0.00    +0.000 HD
ATOM     14  C   UNL     1     -42.404  -4.764 -31.961  0.00  0.00    +0.000 A 
ATOM     15  N   UNL     1     -41.385  -5.427 -32.585  0.00  0.00    +0.000 NA
ATOM     16  C   UNL     1     -40.848  -4.973 -33.762  0.00  0.00    +0.000 A 
ATOM     17  N   UNL     1     -41.313  -3.824 -34.339  0.00  0.00    +0.000 NA
ATOM     18  C   UNL     1     -42.314  -3.157 -33.714  0.00  0.00    +0.000 A 
ATOM     19  N   UNL     1     -42.855  -1.994 -34.094  0.00  0.00    +0.000 N 
ATOM     20  C   UNL     1     -43.749  -1.748 -33.098  0.00  0.00    +0.000 A 
ATOM     21  N   UNL     1     -43.772  -2.704 -32.129  0.00  0.00    +0.000 NA
ATOM     22  C   UNL     1     -42.858  -3.586 -32.558  0.00  0.00    +0.000 A 
ATOM     23  H   UNL     1     -42.657  -1.453 -34.892  0.00  0.00    +0.000 HD
ENDROOT
BRANCH   7  24
ATOM     24  C   UNL     1     -45.790  -7.685 -28.145  0.00  0.00    +0.000 A 
ATOM     25  C   UNL     1     -46.579  -8.178 -27.098  0.00  0.00    +0.000 A 
ATOM     26  C   UNL     1     -46.943  -9.527 -27.064  0.00  0.00    +0.000 A 
ATOM     27  C   UNL     1     -46.523 -10.391 -28.079  0.00  0.00    +0.000 A 
ATOM     28  F   UNL     1     -46.877 -11.698 -28.044  0.00  0.00    +0.000 F 
ATOM     29  C   UNL     1     -45.739  -9.906 -29.130  0.00  0.00    +0.000 A 
ATOM     30  C   UNL     1     -45.374  -8.558 -29.163  0.00  0.00    +0.000 A 
ENDBRANCH   7  24
TORSDOF 1
ENDMDL
