MODEL 1
REMARK VINA RESULT:      -7.6      0.000      0.000
REMARK  Name = ZINC000031809026
REMARK  1 active torsions:
REMARK  status: ('A' for Active; 'I' for Inactive)
REMARK    1  A    between atoms: C_7  and  C_24
REMARK                            x       y       z     vdW  Elec       q    Type
REMARK                         _______ _______ _______ _____ _____    ______ ____
ROOT
ATOM      1  C   UNL     1     -47.558  -3.734 -33.707  0.00  0.00    +0.000 C 
ATOM      2  C   UNL     1     -46.924  -4.863 -34.444  0.00  0.00    +0.000 A 
ATOM      3  N   UNL     1     -47.454  -5.375 -35.568  0.00  0.00    +0.000 NA
ATOM      4  N   UNL     1     -46.700  -6.388 -35.947  0.00  0.00    +0.000 N 
ATOM      5  C   UNL     1     -45.679  -6.551 -35.075  0.00  0.00    +0.000 A 
ATOM      6  C   UNL     1     -45.758  -5.551 -34.094  0.00  0.00    +0.000 A 
ATOM      7  C   UNL     1     -44.890  -5.268 -32.875  0.00  0.00    +0.000 C 
ATOM      8  S   UNL     1     -43.209  -5.960 -32.925  0.00  0.00    +0.000 S 
ATOM      9  C   UNL     1     -43.792  -7.666 -32.881  0.00  0.00    +0.000 C 
ATOM     10  C   UNL     1     -43.814  -8.144 -34.282  0.00  0.00    +0.000 C 
ATOM     11  O   UNL     1     -43.026  -9.060 -34.626  0.00  0.00    +0.000 OA
ATOM     12  N   UNL     1     -44.666  -7.552 -35.264  0.00  0.00    +0.000 N 
ATOM     13  H   UNL     1     -44.544  -7.871 -36.187  0.00  0.00    +0.000 HD
ATOM     14  C   UNL     1     -46.987  -7.165 -37.119  0.00  0.00    +0.000 A 
ATOM     15  N   UNL     1     -47.396  -6.543 -38.267  0.00  0.00    +0.000 NA
ATOM     16  C   UNL     1     -47.731  -7.254 -39.389  0.00  0.00    +0.000 A 
ATOM     17  N   UNL     1     -47.673  -8.620 -39.388  0.00  0.00    +0.000 NA
ATOM     18  C   UNL     1     -47.262  -9.238 -38.255  0.00  0.00    +0.000 A 
ATOM     19  N   UNL     1     -47.220 -10.558 -38.039  0.00  0.00    +0.000 N 
ATOM     20  C   UNL     1     -46.834 -10.631 -36.736  0.00  0.00    +0.000 A 
ATOM     21  N   UNL     1     -46.659  -9.419 -36.144  0.00  0.00    +0.000 NA
ATOM     22  C   UNL     1     -46.928  -8.558 -37.136  0.00  0.00    +0.000 A 
ATOM     23  H   UNL     1     -47.416 -11.292 -38.665  0.00  0.00    +0.000 HD
ENDROOT
BRANCH   7  24
ATOM     24  C   UNL     1     -44.771  -3.798 -32.561  0.00  0.00    +0.000 A 
ATOM     25  C   UNL     1     -44.098  -2.984 -33.486  0.00  0.00    +0.000 A 
ATOM     26  C   UNL     1     -43.970  -1.612 -33.262  0.00  0.00    +0.000 A 
ATOM     27  C   UNL     1     -44.513  -1.034 -32.113  0.00  0.00    +0.000 A 
ATOM     28  F   UNL     1     -44.381   0.295 -31.895  0.00  0.00    +0.000 F 
ATOM     29  C   UNL     1     -45.180  -1.832 -31.184  0.00  0.00    +0.000 A 
ATOM     30  C   UNL     1     -45.316  -3.207 -31.393  0.00  0.00    +0.000 A 
ATOM     31 CL   UNL     1     -46.168  -4.134 -30.167  0.00  0.00    +0.000 Cl
ENDBRANCH   7  24
TORSDOF 1
ENDMDL
MODEL 2
REMARK VINA RESULT:      -6.7      1.791      2.320
REMARK  Name = ZINC000031809026
REMARK  1 active torsions:
REMARK  status: ('A' for Active; 'I' for Inactive)
REMARK    1  A    between atoms: C_7  and  C_24
REMARK                            x       y       z     vdW  Elec       q    Type
REMARK                         _______ _______ _______ _____ _____    ______ ____
ROOT
ATOM      1  C   UNL     1     -46.985  -4.229 -33.899  0.00  0.00    +0.000 C 
ATOM      2  C   UNL     1     -46.256  -5.519 -34.051  0.00  0.00    +0.000 A 
ATOM      3  N   UNL     1     -46.495  -6.363 -35.069  0.00  0.00    +0.000 NA
ATOM      4  N   UNL     1     -45.739  -7.429 -34.898  0.00  0.00    +0.000 N 
ATOM      5  C   UNL     1     -45.007  -7.296 -33.768  0.00  0.00    +0.000 A 
ATOM      6  C   UNL     1     -45.280  -6.043 -33.198  0.00  0.00    +0.000 A 
ATOM      7  C   UNL     1     -44.758  -5.380 -31.930  0.00  0.00    +0.000 C 
ATOM      8  S   UNL     1     -43.179  -6.023 -31.296  0.00  0.00    +0.000 S 
ATOM      9  C   UNL     1     -43.870  -7.642 -30.904  0.00  0.00    +0.000 C 
ATOM     10  C   UNL     1     -43.543  -8.530 -32.042  0.00  0.00    +0.000 C 
ATOM     11  O   UNL     1     -42.757  -9.492 -31.858  0.00  0.00    +0.000 OA
ATOM     12  N   UNL     1     -44.053  -8.288 -33.354  0.00  0.00    +0.000 N 
ATOM     13  H   UNL     1     -43.708  -8.874 -34.065  0.00  0.00    +0.000 HD
ATOM     14  C   UNL     1     -45.750  -8.536 -35.812  0.00  0.00    +0.000 A 
ATOM     15  N   UNL     1     -45.787  -8.308 -37.160  0.00  0.00    +0.000 NA
ATOM     16  C   UNL     1     -45.854  -9.337 -38.061  0.00  0.00    +0.000 A 
ATOM     17  N   UNL     1     -45.893 -10.634 -37.631  0.00  0.00    +0.000 NA
ATOM     18  C   UNL     1     -45.850 -10.864 -36.297  0.00  0.00    +0.000 A 
ATOM     19  N   UNL     1     -45.960 -12.051 -35.690  0.00  0.00    +0.000 N 
ATOM     20  C   UNL     1     -45.949 -11.710 -34.373  0.00  0.00    +0.000 A 
ATOM     21  N   UNL     1     -45.857 -10.371 -34.150  0.00  0.00    +0.000 NA
ATOM     22  C   UNL     1     -45.786  -9.865 -35.389  0.00  0.00    +0.000 A 
ATOM     23  H   UNL     1     -46.029 -12.946 -36.094  0.00  0.00    +0.000 HD
ENDROOT
BRANCH   7  24
ATOM     24  C   UNL     1     -44.626  -3.883 -32.054  0.00  0.00    +0.000 A 
ATOM     25  C   UNL     1     -45.360  -3.086 -31.161  0.00  0.00    +0.000 A 
ATOM     26  C   UNL     1     -45.267  -1.694 -31.213  0.00  0.00    +0.000 A 
ATOM     27  C   UNL     1     -44.439  -1.080 -32.154  0.00  0.00    +0.000 A 
ATOM     28  F   UNL     1     -44.357   0.270 -32.207  0.00  0.00    +0.000 F 
ATOM     29  C   UNL     1     -43.709  -1.860 -33.050  0.00  0.00    +0.000 A 
ATOM     30  C   UNL     1     -43.792  -3.254 -33.012  0.00  0.00    +0.000 A 
ATOM     31 CL   UNL     1     -42.840  -4.157 -34.182  0.00  0.00    +0.000 Cl
ENDBRANCH   7  24
TORSDOF 1
ENDMDL
MODEL 3
REMARK VINA RESULT:      -6.7      5.615      8.052
REMARK  Name = ZINC000031809026
REMARK  1 active torsions:
REMARK  status: ('A' for Active; 'I' for Inactive)
REMARK    1  A    between atoms: C_7  and  C_24
REMARK                            x       y       z     vdW  Elec       q    Type
REMARK                         _______ _______ _______ _____ _____    ______ ____
ROOT
ATOM      1  C   UNL     1     -43.217  -6.864 -28.043  0.00  0.00    +0.000 C 
ATOM      2  C   UNL     1     -43.525  -6.087 -29.276  0.00  0.00    +0.000 A 
ATOM      3  N   UNL     1     -42.589  -5.380 -29.931  0.00  0.00    +0.000 NA
ATOM      4  N   UNL     1     -43.177  -4.766 -30.940  0.00  0.00    +0.000 N 
ATOM      5  C   UNL     1     -44.497  -5.060 -30.949  0.00  0.00    +0.000 A 
ATOM      6  C   UNL     1     -44.768  -5.955 -29.903  0.00  0.00    +0.000 A 
ATOM      7  C   UNL     1     -46.069  -6.598 -29.441  0.00  0.00    +0.000 C 
ATOM      8  S   UNL     1     -47.398  -6.668 -30.682  0.00  0.00    +0.000 S 
ATOM      9  C   UNL     1     -47.586  -4.876 -30.742  0.00  0.00    +0.000 C 
ATOM     10  C   UNL     1     -46.800  -4.405 -31.905  0.00  0.00    +0.000 C 
ATOM     11  O   UNL     1     -47.402  -3.895 -32.882  0.00  0.00    +0.000 OA
ATOM     12  N   UNL     1     -45.382  -4.569 -31.969  0.00  0.00    +0.000 N 
ATOM     13  H   UNL     1     -44.958  -4.312 -32.818  0.00  0.00    +0.000 HD
ATOM     14  C   UNL     1     -42.460  -3.917 -31.848  0.00  0.00    +0.000 A 
ATOM     15  N   UNL     1     -41.222  -4.290 -32.298  0.00  0.00    +0.000 NA
ATOM     16  C   UNL     1     -40.484  -3.482 -33.122  0.00  0.00    +0.000 A 
ATOM     17  N   UNL     1     -40.968  -2.265 -33.515  0.00  0.00    +0.000 NA
ATOM     18  C   UNL     1     -42.195  -1.896 -33.078  0.00  0.00    +0.000 A 
ATOM     19  N   UNL     1     -42.795  -0.719 -33.288  0.00  0.00    +0.000 N 
ATOM     20  C   UNL     1     -43.940  -0.839 -32.564  0.00  0.00    +0.000 A 
ATOM     21  N   UNL     1     -44.058  -2.025 -31.908  0.00  0.00    +0.000 NA
ATOM     22  C   UNL     1     -42.940  -2.676 -32.262  0.00  0.00    +0.000 A 
ATOM     23  H   UNL     1     -42.485   0.042 -33.831  0.00  0.00    +0.000 HD
ENDROOT
BRANCH   7  24
ATOM     24  C   UNL     1     -45.881  -7.990 -28.892  0.00  0.00    +0.000 A 
ATOM     25  C   UNL     1     -45.493  -8.999 -29.787  0.00  0.00    +0.000 A 
ATOM     26  C   UNL     1     -45.284 -10.304 -29.338  0.00  0.00    +0.000 A 
ATOM     27  C   UNL     1     -45.458 -10.618 -27.989  0.00  0.00    +0.000 A 
ATOM     28  F   UNL     1     -45.262 -11.886 -27.557  0.00  0.00    +0.000 F 
ATOM     29  C   UNL     1     -45.848  -9.627 -27.090  0.00  0.00    +0.000 A 
ATOM     30  C   UNL     1     -46.062  -8.315 -27.524  0.00  0.00    +0.000 A 
ATOM     31 CL   UNL     1     -46.555  -7.132 -26.322  0.00  0.00    +0.000 Cl
ENDBRANCH   7  24
TORSDOF 1
ENDMDL
