MODEL 1
REMARK VINA RESULT:      -7.1      0.000      0.000
REMARK  Name = ZINC000018200369
REMARK  2 active torsions:
REMARK  status: ('A' for Active; 'I' for Inactive)
REMARK    1  A    between atoms: C_1  and  C_31
REMARK    2  A    between atoms: C_3  and  O_4
REMARK                            x       y       z     vdW  Elec       q    Type
REMARK                         _______ _______ _______ _____ _____    ______ ____
ROOT
ATOM      1  C   UNL     1     -46.080  -5.690 -32.075  0.00  0.00    +0.000 C 
ATOM      2  C   UNL     1     -46.332  -5.718 -30.599  0.00  0.00    +0.000 A 
ATOM      3  C   UNL     1     -47.041  -4.902 -29.754  0.00  0.00    +0.000 A 
ATOM      4  N   UNL     1     -46.942  -5.362 -28.488  0.00  0.00    +0.000 NA
ATOM      5  N   UNL     1     -46.186  -6.455 -28.501  0.00  0.00    +0.000 N 
ATOM      6  C   UNL     1     -45.822  -6.665 -29.779  0.00  0.00    +0.000 A 
ATOM      7  N   UNL     1     -45.024  -7.736 -30.264  0.00  0.00    +0.000 N 
ATOM      8  C   UNL     1     -44.794  -7.843 -31.682  0.00  0.00    +0.000 C 
ATOM      9  C   UNL     1     -45.283  -6.910 -32.553  0.00  0.00    +0.000 C 
ATOM     10  C   UNL     1     -45.101  -7.113 -34.012  0.00  0.00    +0.000 C 
ATOM     11  O   UNL     1     -45.614  -6.311 -34.837  0.00  0.00    +0.000 OA
ATOM     12  C   UNL     1     -44.285  -8.258 -34.534  0.00  0.00    +0.000 C 
ATOM     13  C   UNL     1     -44.297  -9.449 -33.579  0.00  0.00    +0.000 C 
ATOM     14  C   UNL     1     -43.253 -10.445 -34.035  0.00  0.00    +0.000 C 
ATOM     15  C   UNL     1     -45.654 -10.135 -33.599  0.00  0.00    +0.000 C 
ATOM     16  C   UNL     1     -43.949  -8.994 -32.160  0.00  0.00    +0.000 C 
ATOM     17  H   UNL     1     -45.940  -7.008 -27.724  0.00  0.00    +0.000 HD
ATOM     18  H   UNL     1     -44.634  -8.394 -29.643  0.00  0.00    +0.000 HD
ENDROOT
BRANCH   1  29
ATOM     19  C   UNL     1     -47.567  -3.587 -33.688  0.00  0.00    +0.000 C 
ATOM     20  C   UNL     1     -46.151  -3.404 -33.254  0.00  0.00    +0.000 A 
ATOM     21  N   UNL     1     -45.511  -2.256 -33.601  0.00  0.00    +0.000 NA
ATOM     22  C   UNL     1     -44.222  -2.030 -33.243  0.00  0.00    +0.000 A 
ATOM     23  C   UNL     1     -43.579  -0.844 -33.607  0.00  0.00    +0.000 A 
ATOM     24  C   UNL     1     -42.249  -0.629 -33.229  0.00  0.00    +0.000 A 
ATOM     25  C   UNL     1     -41.563  -1.598 -32.489  0.00  0.00    +0.000 A 
ATOM     26  C   UNL     1     -42.203  -2.787 -32.122  0.00  0.00    +0.000 A 
ATOM     27  C   UNL     1     -43.531  -3.004 -32.497  0.00  0.00    +0.000 A 
ATOM     28  N   UNL     1     -44.167  -4.152 -32.150  0.00  0.00    +0.000 NA
ATOM     29  C   UNL     1     -45.461  -4.384 -32.503  0.00  0.00    +0.000 A 
ENDBRANCH   1  29
BRANCH   3  30
ATOM     30  O   UNL     1     -47.755  -3.769 -30.120  0.00  0.00    +0.000 OA
ATOM     31  H   UNL     1     -48.578  -3.583 -29.714  0.00  0.00    +0.000 HD
ENDBRANCH   3  30
TORSDOF 2
ENDMDL
MODEL 2
REMARK VINA RESULT:      -6.7      2.408      4.722
REMARK  Name = ZINC000018200369
REMARK  2 active torsions:
REMARK  status: ('A' for Active; 'I' for Inactive)
REMARK    1  A    between atoms: C_1  and  C_31
REMARK    2  A    between atoms: C_3  and  O_4
REMARK                            x       y       z     vdW  Elec       q    Type
REMARK                         _______ _______ _______ _____ _____    ______ ____
ROOT
ATOM      1  C   UNL     1     -44.058  -6.536 -31.292  0.00  0.00    +0.000 C 
ATOM      2  C   UNL     1     -45.005  -7.037 -32.337  0.00  0.00    +0.000 A 
ATOM      3  C   UNL     1     -44.885  -7.242 -33.689  0.00  0.00    +0.000 A 
ATOM      4  N   UNL     1     -46.055  -7.700 -34.185  0.00  0.00    +0.000 NA
ATOM      5  N   UNL     1     -46.923  -7.794 -33.182  0.00  0.00    +0.000 N 
ATOM      6  C   UNL     1     -46.282  -7.393 -32.070  0.00  0.00    +0.000 A 
ATOM      7  N   UNL     1     -46.820  -7.347 -30.756  0.00  0.00    +0.000 N 
ATOM      8  C   UNL     1     -45.962  -6.958 -29.667  0.00  0.00    +0.000 C 
ATOM      9  C   UNL     1     -44.665  -6.584 -29.884  0.00  0.00    +0.000 C 
ATOM     10  C   UNL     1     -43.792  -6.282 -28.722  0.00  0.00    +0.000 C 
ATOM     11  O   UNL     1     -42.572  -6.016 -28.893  0.00  0.00    +0.000 OA
ATOM     12  C   UNL     1     -44.345  -6.261 -27.328  0.00  0.00    +0.000 C 
ATOM     13  C   UNL     1     -45.546  -7.192 -27.177  0.00  0.00    +0.000 C 
ATOM     14  C   UNL     1     -46.205  -6.919 -25.843  0.00  0.00    +0.000 C 
ATOM     15  C   UNL     1     -45.100  -8.646 -27.202  0.00  0.00    +0.000 C 
ATOM     16  C   UNL     1     -46.565  -6.927 -28.288  0.00  0.00    +0.000 C 
ATOM     17  H   UNL     1     -47.857  -8.100 -33.242  0.00  0.00    +0.000 HD
ATOM     18  H   UNL     1     -47.764  -7.578 -30.591  0.00  0.00    +0.000 HD
ENDROOT
BRANCH   1  29
ATOM     19  C   UNL     1     -41.187  -6.059 -32.166  0.00  0.00    +0.000 C 
ATOM     20  C   UNL     1     -42.179  -4.951 -32.054  0.00  0.00    +0.000 A 
ATOM     21  N   UNL     1     -41.775  -3.688 -32.350  0.00  0.00    +0.000 NA
ATOM     22  C   UNL     1     -42.626  -2.634 -32.263  0.00  0.00    +0.000 A 
ATOM     23  C   UNL     1     -42.194  -1.342 -32.572  0.00  0.00    +0.000 A 
ATOM     24  C   UNL     1     -43.086  -0.269 -32.475  0.00  0.00    +0.000 A 
ATOM     25  C   UNL     1     -44.408  -0.486 -32.069  0.00  0.00    +0.000 A 
ATOM     26  C   UNL     1     -44.844  -1.779 -31.759  0.00  0.00    +0.000 A 
ATOM     27  C   UNL     1     -43.956  -2.854 -31.856  0.00  0.00    +0.000 A 
ATOM     28  N   UNL     1     -44.363  -4.114 -31.558  0.00  0.00    +0.000 NA
ATOM     29  C   UNL     1     -43.515  -5.175 -31.647  0.00  0.00    +0.000 A 
ENDBRANCH   1  29
BRANCH   3  30
ATOM     30  O   UNL     1     -43.748  -7.018 -34.453  0.00  0.00    +0.000 OA
ATOM     31  H   UNL     1     -43.258  -6.227 -34.343  0.00  0.00    +0.000 HD
ENDBRANCH   3  30
TORSDOF 2
ENDMDL
MODEL 3
REMARK VINA RESULT:      -6.6     10.259     13.225
REMARK  Name = ZINC000018200369
REMARK  2 active torsions:
REMARK  status: ('A' for Active; 'I' for Inactive)
REMARK    1  A    between atoms: C_1  and  C_31
REMARK    2  A    between atoms: C_3  and  O_4
REMARK                            x       y       z     vdW  Elec       q    Type
REMARK                         _______ _______ _______ _____ _____    ______ ____
ROOT
ATOM      1  C   UNL     1     -43.582 -16.540 -25.416  0.00  0.00    +0.000 C 
ATOM      2  C   UNL     1     -44.511 -17.685 -25.159  0.00  0.00    +0.000 A 
ATOM      3  C   UNL     1     -44.924 -18.747 -25.925  0.00  0.00    +0.000 A 
ATOM      4  N   UNL     1     -45.797 -19.503 -25.223  0.00  0.00    +0.000 NA
ATOM      5  N   UNL     1     -45.953 -18.950 -24.024  0.00  0.00    +0.000 N 
ATOM      6  C   UNL     1     -45.174 -17.854 -23.992  0.00  0.00    +0.000 A 
ATOM      7  N   UNL     1     -45.013 -16.965 -22.896  0.00  0.00    +0.000 N 
ATOM      8  C   UNL     1     -44.076 -15.878 -23.016  0.00  0.00    +0.000 C 
ATOM      9  C   UNL     1     -43.385 -15.660 -24.175  0.00  0.00    +0.000 C 
ATOM     10  C   UNL     1     -42.362 -14.586 -24.221  0.00  0.00    +0.000 C 
ATOM     11  O   UNL     1     -41.655 -14.421 -25.250  0.00  0.00    +0.000 OA
ATOM     12  C   UNL     1     -42.165 -13.661 -23.056  0.00  0.00    +0.000 C 
ATOM     13  C   UNL     1     -42.540 -14.323 -21.732  0.00  0.00    +0.000 C 
ATOM     14  C   UNL     1     -42.572 -13.262 -20.653  0.00  0.00    +0.000 C 
ATOM     15  C   UNL     1     -41.503 -15.367 -21.346  0.00  0.00    +0.000 C 
ATOM     16  C   UNL     1     -43.927 -14.959 -21.832  0.00  0.00    +0.000 C 
ATOM     17  H   UNL     1     -46.528 -19.281 -23.296  0.00  0.00    +0.000 HD
ATOM     18  H   UNL     1     -45.533 -17.088 -22.068  0.00  0.00    +0.000 HD
ENDROOT
BRANCH   1  29
ATOM     19  C   UNL     1     -42.114 -16.659 -28.074  0.00  0.00    +0.000 C 
ATOM     20  C   UNL     1     -43.320 -15.805 -27.868  0.00  0.00    +0.000 A 
ATOM     21  N   UNL     1     -43.768 -15.055 -28.909  0.00  0.00    +0.000 NA
ATOM     22  C   UNL     1     -44.855 -14.252 -28.786  0.00  0.00    +0.000 A 
ATOM     23  C   UNL     1     -45.302 -13.488 -29.867  0.00  0.00    +0.000 A 
ATOM     24  C   UNL     1     -46.424 -12.666 -29.721  0.00  0.00    +0.000 A 
ATOM     25  C   UNL     1     -47.100 -12.608 -28.497  0.00  0.00    +0.000 A 
ATOM     26  C   UNL     1     -46.655 -13.372 -27.412  0.00  0.00    +0.000 A 
ATOM     27  C   UNL     1     -45.535 -14.195 -27.555  0.00  0.00    +0.000 A 
ATOM     28  N   UNL     1     -45.090 -14.942 -26.513  0.00  0.00    +0.000 NA
ATOM     29  C   UNL     1     -44.002 -15.751 -26.630  0.00  0.00    +0.000 A 
ENDBRANCH   1  29
BRANCH   3  30
ATOM     30  O   UNL     1     -44.523 -19.022 -27.225  0.00  0.00    +0.000 OA
ATOM     31  H   UNL     1     -43.808 -19.605 -27.382  0.00  0.00    +0.000 HD
ENDBRANCH   3  30
TORSDOF 2
ENDMDL
