MODEL 1
REMARK VINA RESULT:      -7.6      0.000      0.000
REMARK  Name = ZINC000064605344 ZINC64605344 ChemDiv-J046-1135 MCULE-1856858286 MolPort-010-723-805 PubChem-50813209
REMARK  7 active torsions:
REMARK  status: ('A' for Active; 'I' for Inactive)
REMARK    1  A    between atoms: N_1  and  C_22
REMARK    2  A    between atoms: C_3  and  C_8
REMARK    3  A    between atoms: C_5  and  N_15
REMARK    4  A    between atoms: C_16  and  C_19
REMARK    5  A    between atoms: C_22  and  C_24
REMARK    6  A    between atoms: N_23  and  C_28
REMARK    7  A    between atoms: C_27  and  O_35
REMARK                            x       y       z     vdW  Elec       q    Type
REMARK                         _______ _______ _______ _____ _____    ______ ____
ROOT
ATOM      1  N   UNL     1     -47.306  -6.291 -30.114  0.00  0.00    +0.000 N 
ATOM      2  N   UNL     1     -47.368  -5.864 -28.851  0.00  0.00    +0.000 NA
ATOM      3  C   UNL     1     -46.993  -4.608 -28.490  0.00  0.00    +0.000 A 
ATOM      4  C   UNL     1     -46.521  -3.739 -29.475  0.00  0.00    +0.000 A 
ATOM      5  C   UNL     1     -46.445  -4.167 -30.802  0.00  0.00    +0.000 A 
ATOM      6  C   UNL     1     -46.848  -5.472 -31.109  0.00  0.00    +0.000 A 
ATOM      7  O   UNL     1     -46.783  -5.885 -32.300  0.00  0.00    +0.000 OA
ENDROOT
BRANCH   3   8
ATOM      8  C   UNL     1     -47.079  -4.184 -27.076  0.00  0.00    +0.000 A 
ATOM      9  C   UNL     1     -47.304  -2.835 -26.759  0.00  0.00    +0.000 A 
ATOM     10  C   UNL     1     -47.384  -2.422 -25.426  0.00  0.00    +0.000 A 
ATOM     11  C   UNL     1     -47.244  -3.358 -24.396  0.00  0.00    +0.000 A 
ATOM     12  C   UNL     1     -47.332  -2.920 -22.979  0.00  0.00    +0.000 C 
ATOM     13  C   UNL     1     -47.024  -4.703 -24.700  0.00  0.00    +0.000 A 
ATOM     14  C   UNL     1     -46.941  -5.115 -26.033  0.00  0.00    +0.000 A 
ENDBRANCH   3   8
BRANCH   5  15
ATOM     15  N   UNL     1     -45.958  -3.307 -31.844  0.00  0.00    +0.000 N 
ATOM     16  C   UNL     1     -44.585  -3.059 -32.184  0.00  0.00    +0.000 C 
ATOM     17  O   UNL     1     -43.647  -3.599 -31.538  0.00  0.00    +0.000 OA
ATOM     18  H   UNL     1     -46.637  -2.841 -32.384  0.00  0.00    +0.000 HD
BRANCH  16  19
ATOM     19  C   UNL     1     -44.250  -2.144 -33.315  0.00  0.00    +0.000 C 
ATOM     20  C   UNL     1     -43.018  -2.639 -34.048  0.00  0.00    +0.000 C 
ATOM     21  C   UNL     1     -44.015  -0.734 -32.808  0.00  0.00    +0.000 C 
ENDBRANCH  16  19
ENDBRANCH   5  15
BRANCH   1  22
ATOM     22  C   UNL     1     -47.690  -7.667 -30.401  0.00  0.00    +0.000 C 
BRANCH  22  24
ATOM     23  N   UNL     1     -47.756  -9.046 -28.287  0.00  0.00    +0.000 N 
ATOM     24  C   UNL     1     -47.030  -8.584 -29.430  0.00  0.00    +0.000 C 
ATOM     25  O   UNL     1     -45.836  -8.937 -29.622  0.00  0.00    +0.000 OA
ATOM     26  H   UNL     1     -48.739  -9.004 -28.325  0.00  0.00    +0.000 HD
BRANCH  23  28
ATOM     27  C   UNL     1     -46.722 -10.903 -26.995  0.00  0.00    +0.000 A 
ATOM     28  C   UNL     1     -47.160  -9.564 -27.092  0.00  0.00    +0.000 A 
ATOM     29  C   UNL     1     -46.953  -8.689 -26.020  0.00  0.00    +0.000 A 
ATOM     30  C   UNL     1     -46.361  -9.141 -24.839  0.00  0.00    +0.000 A 
ATOM     31  C   UNL     1     -46.162  -8.205 -23.702  0.00  0.00    +0.000 C 
ATOM     32  C   UNL     1     -45.962 -10.474 -24.724  0.00  0.00    +0.000 A 
ATOM     33  C   UNL     1     -46.137 -11.348 -25.798  0.00  0.00    +0.000 A 
BRANCH  27  35
ATOM     34  C   UNL     1     -46.746 -13.176 -27.985  0.00  0.00    +0.000 C 
ATOM     35  O   UNL     1     -46.843 -11.762 -28.093  0.00  0.00    +0.000 OA
ENDBRANCH  27  35
ENDBRANCH  23  28
ENDBRANCH  22  24
ENDBRANCH   1  22
TORSDOF 7
ENDMDL
MODEL 2
REMARK VINA RESULT:      -7.4      1.740      2.384
REMARK  Name = ZINC000064605344 ZINC64605344 ChemDiv-J046-1135 MCULE-1856858286 MolPort-010-723-805 PubChem-50813209
REMARK  7 active torsions:
REMARK  status: ('A' for Active; 'I' for Inactive)
REMARK    1  A    between atoms: N_1  and  C_22
REMARK    2  A    between atoms: C_3  and  C_8
REMARK    3  A    between atoms: C_5  and  N_15
REMARK    4  A    between atoms: C_16  and  C_19
REMARK    5  A    between atoms: C_22  and  C_24
REMARK    6  A    between atoms: N_23  and  C_28
REMARK    7  A    between atoms: C_27  and  O_35
REMARK                            x       y       z     vdW  Elec       q    Type
REMARK                         _______ _______ _______ _____ _____    ______ ____
ROOT
ATOM      1  N   UNL     1     -46.867  -6.712 -28.383  0.00  0.00    +0.000 N 
ATOM      2  N   UNL     1     -46.934  -5.990 -27.262  0.00  0.00    +0.000 NA
ATOM      3  C   UNL     1     -47.105  -4.641 -27.277  0.00  0.00    +0.000 A 
ATOM      4  C   UNL     1     -47.208  -3.991 -28.509  0.00  0.00    +0.000 A 
ATOM      5  C   UNL     1     -47.135  -4.727 -29.692  0.00  0.00    +0.000 A 
ATOM      6  C   UNL     1     -46.959  -6.113 -29.610  0.00  0.00    +0.000 A 
ATOM      7  O   UNL     1     -46.885  -6.801 -30.665  0.00  0.00    +0.000 OA
ENDROOT
BRANCH   3   8
ATOM      8  C   UNL     1     -47.173  -3.886 -26.008  0.00  0.00    +0.000 A 
ATOM      9  C   UNL     1     -47.304  -2.488 -26.028  0.00  0.00    +0.000 A 
ATOM     10  C   UNL     1     -47.365  -1.764 -24.834  0.00  0.00    +0.000 A 
ATOM     11  C   UNL     1     -47.301  -2.433 -23.607  0.00  0.00    +0.000 A 
ATOM     12  C   UNL     1     -47.368  -1.663 -22.338  0.00  0.00    +0.000 C 
ATOM     13  C   UNL     1     -47.174  -3.823 -23.576  0.00  0.00    +0.000 A 
ATOM     14  C   UNL     1     -47.110  -4.547 -24.770  0.00  0.00    +0.000 A 
ENDBRANCH   3   8
BRANCH   5  15
ATOM     15  N   UNL     1     -47.227  -4.096 -30.979  0.00  0.00    +0.000 N 
ATOM     16  C   UNL     1     -46.206  -3.330 -31.637  0.00  0.00    +0.000 C 
ATOM     17  O   UNL     1     -45.089  -3.129 -31.090  0.00  0.00    +0.000 OA
ATOM     18  H   UNL     1     -48.079  -4.202 -31.462  0.00  0.00    +0.000 HD
BRANCH  16  19
ATOM     19  C   UNL     1     -46.462  -2.754 -32.991  0.00  0.00    +0.000 C 
ATOM     20  C   UNL     1     -47.146  -3.775 -33.878  0.00  0.00    +0.000 C 
ATOM     21  C   UNL     1     -45.163  -2.303 -33.632  0.00  0.00    +0.000 C 
ENDBRANCH  16  19
ENDBRANCH   5  15
BRANCH   1  22
ATOM     22  C   UNL     1     -46.640  -8.147 -28.270  0.00  0.00    +0.000 C 
BRANCH  22  24
ATOM     23  N   UNL     1     -46.934  -9.037 -25.927  0.00  0.00    +0.000 N 
ATOM     24  C   UNL     1     -46.084  -8.463 -26.925  0.00  0.00    +0.000 C 
ATOM     25  O   UNL     1     -44.875  -8.214 -26.677  0.00  0.00    +0.000 OA
ATOM     26  H   UNL     1     -47.755  -9.486 -26.231  0.00  0.00    +0.000 HD
BRANCH  23  28
ATOM     27  C   UNL     1     -45.799  -9.922 -23.897  0.00  0.00    +0.000 A 
ATOM     28  C   UNL     1     -46.678  -9.007 -24.518  0.00  0.00    +0.000 A 
ATOM     29  C   UNL     1     -47.272  -7.994 -23.756  0.00  0.00    +0.000 A 
ATOM     30  C   UNL     1     -47.043  -7.912 -22.381  0.00  0.00    +0.000 A 
ATOM     31  C   UNL     1     -47.694  -6.840 -21.583  0.00  0.00    +0.000 C 
ATOM     32  C   UNL     1     -46.206  -8.838 -21.757  0.00  0.00    +0.000 A 
ATOM     33  C   UNL     1     -45.584  -9.835 -22.511  0.00  0.00    +0.000 A 
BRANCH  27  35
ATOM     34  C   UNL     1     -45.568 -12.232 -24.767  0.00  0.00    +0.000 C 
ATOM     35  O   UNL     1     -45.131 -10.883 -24.664  0.00  0.00    +0.000 OA
ENDBRANCH  27  35
ENDBRANCH  23  28
ENDBRANCH  22  24
ENDBRANCH   1  22
TORSDOF 7
ENDMDL
MODEL 3
REMARK VINA RESULT:      -7.3      1.553      7.338
REMARK  Name = ZINC000064605344 ZINC64605344 ChemDiv-J046-1135 MCULE-1856858286 MolPort-010-723-805 PubChem-50813209
REMARK  7 active torsions:
REMARK  status: ('A' for Active; 'I' for Inactive)
REMARK    1  A    between atoms: N_1  and  C_22
REMARK    2  A    between atoms: C_3  and  C_8
REMARK    3  A    between atoms: C_5  and  N_15
REMARK    4  A    between atoms: C_16  and  C_19
REMARK    5  A    between atoms: C_22  and  C_24
REMARK    6  A    between atoms: N_23  and  C_28
REMARK    7  A    between atoms: C_27  and  O_35
REMARK                            x       y       z     vdW  Elec       q    Type
REMARK                         _______ _______ _______ _____ _____    ______ ____
ROOT
ATOM      1  N   UNL     1     -46.981  -6.435 -29.427  0.00  0.00    +0.000 N 
ATOM      2  N   UNL     1     -47.125  -5.498 -28.487  0.00  0.00    +0.000 NA
ATOM      3  C   UNL     1     -46.835  -5.732 -27.179  0.00  0.00    +0.000 A 
ATOM      4  C   UNL     1     -46.378  -6.998 -26.809  0.00  0.00    +0.000 A 
ATOM      5  C   UNL     1     -46.225  -7.993 -27.776  0.00  0.00    +0.000 A 
ATOM      6  C   UNL     1     -46.539  -7.689 -29.106  0.00  0.00    +0.000 A 
ATOM      7  O   UNL     1     -46.414  -8.572 -29.998  0.00  0.00    +0.000 OA
ENDROOT
BRANCH   3   8
ATOM      8  C   UNL     1     -47.013  -4.661 -26.175  0.00  0.00    +0.000 A 
ATOM      9  C   UNL     1     -46.950  -4.964 -24.806  0.00  0.00    +0.000 A 
ATOM     10  C   UNL     1     -47.120  -3.959 -23.848  0.00  0.00    +0.000 A 
ATOM     11  C   UNL     1     -47.348  -2.640 -24.253  0.00  0.00    +0.000 A 
ATOM     12  C   UNL     1     -47.526  -1.572 -23.235  0.00  0.00    +0.000 C 
ATOM     13  C   UNL     1     -47.408  -2.327 -25.612  0.00  0.00    +0.000 A 
ATOM     14  C   UNL     1     -47.242  -3.332 -26.570  0.00  0.00    +0.000 A 
ENDBRANCH   3   8
BRANCH   5  15
ATOM     15  N   UNL     1     -45.766  -9.310 -27.436  0.00  0.00    +0.000 N 
ATOM     16  C   UNL     1     -46.492 -10.314 -26.708  0.00  0.00    +0.000 C 
ATOM     17  O   UNL     1     -47.654 -10.090 -26.274  0.00  0.00    +0.000 OA
ATOM     18  H   UNL     1     -44.858  -9.552 -27.733  0.00  0.00    +0.000 HD
BRANCH  16  19
ATOM     19  C   UNL     1     -45.870 -11.647 -26.453  0.00  0.00    +0.000 C 
ATOM     20  C   UNL     1     -46.670 -12.742 -27.132  0.00  0.00    +0.000 C 
ATOM     21  C   UNL     1     -45.785 -11.919 -24.963  0.00  0.00    +0.000 C 
ENDBRANCH  16  19
ENDBRANCH   5  15
BRANCH   1  22
ATOM     22  C   UNL     1     -47.356  -6.106 -30.796  0.00  0.00    +0.000 C 
BRANCH  22  24
ATOM     23  N   UNL     1     -45.160  -4.861 -30.779  0.00  0.00    +0.000 N 
ATOM     24  C   UNL     1     -46.181  -5.542 -31.516  0.00  0.00    +0.000 C 
ATOM     25  O   UNL     1     -46.101  -5.662 -32.767  0.00  0.00    +0.000 OA
ATOM     26  H   UNL     1     -45.097  -5.043 -29.814  0.00  0.00    +0.000 HD
BRANCH  23  28
ATOM     27  C   UNL     1     -42.940  -4.335 -31.772  0.00  0.00    +0.000 A 
ATOM     28  C   UNL     1     -44.224  -3.934 -31.341  0.00  0.00    +0.000 A 
ATOM     29  C   UNL     1     -44.630  -2.607 -31.523  0.00  0.00    +0.000 A 
ATOM     30  C   UNL     1     -43.761  -1.668 -32.080  0.00  0.00    +0.000 A 
ATOM     31  C   UNL     1     -44.201  -0.258 -32.252  0.00  0.00    +0.000 C 
ATOM     32  C   UNL     1     -42.477  -2.051 -32.472  0.00  0.00    +0.000 A 
ATOM     33  C   UNL     1     -42.071  -3.379 -32.323  0.00  0.00    +0.000 A 
BRANCH  27  35
ATOM     34  C   UNL     1     -41.205  -6.087 -31.515  0.00  0.00    +0.000 C 
ATOM     35  O   UNL     1     -42.557  -5.678 -31.676  0.00  0.00    +0.000 OA
ENDBRANCH  27  35
ENDBRANCH  23  28
ENDBRANCH  22  24
ENDBRANCH   1  22
TORSDOF 7
ENDMDL
