MODEL 1
REMARK VINA RESULT:      -6.4      0.000      0.000
REMARK  Name = ZINC000065283276 ZINC65283276 ChemDiv-T480-0419 MolPort-010-948-687 PubChem-53190182
REMARK  2 active torsions:
REMARK  status: ('A' for Active; 'I' for Inactive)
REMARK    1  A    between atoms: C_8  and  C_17
REMARK    2  A    between atoms: N_19  and  C_21
REMARK                            x       y       z     vdW  Elec       q    Type
REMARK                         _______ _______ _______ _____ _____    ______ ____
ROOT
ATOM      1  C   UNL     1     -43.317 -18.082 -18.511  0.00  0.00    +0.000 C 
ATOM      2  C   UNL     1     -43.108 -18.726 -19.837  0.00  0.00    +0.000 A 
ATOM      3  C   UNL     1     -43.819 -18.519 -21.017  0.00  0.00    +0.000 A 
ATOM      4  C   UNL     1     -43.379 -19.334 -22.069  0.00  0.00    +0.000 A 
ATOM      5  C   UNL     1     -42.324 -20.190 -21.774  0.00  0.00    +0.000 A 
ATOM      6  S   UNL     1     -41.956 -19.909 -20.150  0.00  0.00    +0.000 S 
ATOM      7  N   UNL     1     -43.972 -19.276 -23.285  0.00  0.00    +0.000 NA
ATOM      8  C   UNL     1     -45.004 -18.413 -23.504  0.00  0.00    +0.000 A 
ATOM      9  N   UNL     1     -45.454 -17.618 -22.489  0.00  0.00    +0.000 NA
ATOM     10  C   UNL     1     -44.886 -17.640 -21.252  0.00  0.00    +0.000 A 
ATOM     11  N   UNL     1     -45.385 -16.768 -20.238  0.00  0.00    +0.000 N 
ATOM     12  C   UNL     1     -46.460 -17.252 -19.368  0.00  0.00    +0.000 C 
ATOM     13  C   UNL     1     -47.048 -16.117 -18.530  0.00  0.00    +0.000 C 
ATOM     14  O   UNL     1     -46.020 -15.303 -18.038  0.00  0.00    +0.000 OA
ATOM     15  C   UNL     1     -45.585 -14.560 -19.143  0.00  0.00    +0.000 C 
ATOM     16  C   UNL     1     -44.765 -15.448 -20.078  0.00  0.00    +0.000 C 
ENDROOT
BRANCH   8  17
ATOM     17  C   UNL     1     -45.664 -18.360 -24.822  0.00  0.00    +0.000 C 
ATOM     18  O   UNL     1     -46.581 -19.182 -25.082  0.00  0.00    +0.000 OA
ATOM     19  N   UNL     1     -45.253 -17.438 -25.841  0.00  0.00    +0.000 N 
ATOM     20  H   UNL     1     -45.282 -17.758 -26.772  0.00  0.00    +0.000 HD
BRANCH  19  21
ATOM     21  C   UNL     1     -44.807 -16.092 -25.628  0.00  0.00    +0.000 A 
ATOM     22  C   UNL     1     -43.463 -15.778 -25.861  0.00  0.00    +0.000 A 
ATOM     23  C   UNL     1     -43.003 -14.467 -25.698  0.00  0.00    +0.000 A 
ATOM     24  C   UNL     1     -43.893 -13.464 -25.308  0.00  0.00    +0.000 A 
ATOM     25  O   UNL     1     -43.462 -12.142 -25.158  0.00  0.00    +0.000 OA
ATOM     26  C   UNL     1     -44.404 -11.073 -25.046  0.00  0.00    +0.000 C 
ATOM     27  C   UNL     1     -45.594 -11.505 -24.185  0.00  0.00    +0.000 C 
ATOM     28  O   UNL     1     -46.103 -12.760 -24.640  0.00  0.00    +0.000 OA
ATOM     29  C   UNL     1     -45.238 -13.773 -25.063  0.00  0.00    +0.000 A 
ATOM     30  C   UNL     1     -45.698 -15.079 -25.241  0.00  0.00    +0.000 A 
ENDBRANCH  19  21
ENDBRANCH   8  17
TORSDOF 2
ENDMDL
MODEL 2
REMARK VINA RESULT:      -6.3      2.780      6.896
REMARK  Name = ZINC000065283276 ZINC65283276 ChemDiv-T480-0419 MolPort-010-948-687 PubChem-53190182
REMARK  2 active torsions:
REMARK  status: ('A' for Active; 'I' for Inactive)
REMARK    1  A    between atoms: C_8  and  C_17
REMARK    2  A    between atoms: N_19  and  C_21
REMARK                            x       y       z     vdW  Elec       q    Type
REMARK                         _______ _______ _______ _____ _____    ______ ____
ROOT
ATOM      1  C   UNL     1     -43.084 -12.338 -26.591  0.00  0.00    +0.000 C 
ATOM      2  C   UNL     1     -42.578 -13.610 -26.003  0.00  0.00    +0.000 A 
ATOM      3  C   UNL     1     -43.125 -14.886 -26.112  0.00  0.00    +0.000 A 
ATOM      4  C   UNL     1     -42.409 -15.850 -25.390  0.00  0.00    +0.000 A 
ATOM      5  C   UNL     1     -41.290 -15.388 -24.705  0.00  0.00    +0.000 A 
ATOM      6  S   UNL     1     -41.221 -13.731 -25.020  0.00  0.00    +0.000 S 
ATOM      7  N   UNL     1     -42.812 -17.143 -25.370  0.00  0.00    +0.000 NA
ATOM      8  C   UNL     1     -43.920 -17.526 -26.063  0.00  0.00    +0.000 A 
ATOM      9  N   UNL     1     -44.638 -16.600 -26.766  0.00  0.00    +0.000 NA
ATOM     10  C   UNL     1     -44.268 -15.291 -26.817  0.00  0.00    +0.000 A 
ATOM     11  N   UNL     1     -45.045 -14.374 -27.588  0.00  0.00    +0.000 N 
ATOM     12  C   UNL     1     -46.151 -13.672 -26.931  0.00  0.00    +0.000 C 
ATOM     13  C   UNL     1     -47.029 -12.946 -27.949  0.00  0.00    +0.000 C 
ATOM     14  O   UNL     1     -46.228 -12.313 -28.908  0.00  0.00    +0.000 OA
ATOM     15  C   UNL     1     -45.751 -13.347 -29.723  0.00  0.00    +0.000 C 
ATOM     16  C   UNL     1     -44.670 -14.136 -28.986  0.00  0.00    +0.000 C 
ENDROOT
BRANCH   8  17
ATOM     17  C   UNL     1     -44.373 -18.929 -26.030  0.00  0.00    +0.000 C 
ATOM     18  O   UNL     1     -44.247 -19.639 -27.062  0.00  0.00    +0.000 OA
ATOM     19  N   UNL     1     -45.009 -19.495 -24.876  0.00  0.00    +0.000 N 
ATOM     20  H   UNL     1     -45.736 -20.140 -25.037  0.00  0.00    +0.000 HD
BRANCH  19  21
ATOM     21  C   UNL     1     -44.682 -19.210 -23.510  0.00  0.00    +0.000 A 
ATOM     22  C   UNL     1     -43.536 -19.788 -22.951  0.00  0.00    +0.000 A 
ATOM     23  C   UNL     1     -43.169 -19.501 -21.632  0.00  0.00    +0.000 A 
ATOM     24  C   UNL     1     -43.946 -18.626 -20.870  0.00  0.00    +0.000 A 
ATOM     25  O   UNL     1     -43.587 -18.307 -19.557  0.00  0.00    +0.000 OA
ATOM     26  C   UNL     1     -44.198 -17.208 -18.878  0.00  0.00    +0.000 C 
ATOM     27  C   UNL     1     -45.690 -17.142 -19.214  0.00  0.00    +0.000 C 
ATOM     28  O   UNL     1     -45.881 -17.205 -20.629  0.00  0.00    +0.000 OA
ATOM     29  C   UNL     1     -45.099 -18.051 -21.420  0.00  0.00    +0.000 A 
ATOM     30  C   UNL     1     -45.456 -18.326 -22.741  0.00  0.00    +0.000 A 
ENDBRANCH  19  21
ENDBRANCH   8  17
TORSDOF 2
ENDMDL
MODEL 3
REMARK VINA RESULT:      -6.1      3.609      7.569
REMARK  Name = ZINC000065283276 ZINC65283276 ChemDiv-T480-0419 MolPort-010-948-687 PubChem-53190182
REMARK  2 active torsions:
REMARK  status: ('A' for Active; 'I' for Inactive)
REMARK    1  A    between atoms: C_8  and  C_17
REMARK    2  A    between atoms: N_19  and  C_21
REMARK                            x       y       z     vdW  Elec       q    Type
REMARK                         _______ _______ _______ _____ _____    ______ ____
ROOT
ATOM      1  C   UNL     1     -45.610 -15.560 -23.496  0.00  0.00    +0.000 C 
ATOM      2  C   UNL     1     -45.750 -15.797 -22.032  0.00  0.00    +0.000 A 
ATOM      3  C   UNL     1     -45.485 -16.964 -21.320  0.00  0.00    +0.000 A 
ATOM      4  C   UNL     1     -45.772 -16.847 -19.953  0.00  0.00    +0.000 A 
ATOM      5  C   UNL     1     -46.255 -15.610 -19.539  0.00  0.00    +0.000 A 
ATOM      6  S   UNL     1     -46.324 -14.662 -20.934  0.00  0.00    +0.000 S 
ATOM      7  N   UNL     1     -45.590 -17.894 -19.114  0.00  0.00    +0.000 NA
ATOM      8  C   UNL     1     -45.114 -19.078 -19.589  0.00  0.00    +0.000 A 
ATOM      9  N   UNL     1     -44.837 -19.217 -20.919  0.00  0.00    +0.000 NA
ATOM     10  C   UNL     1     -45.002 -18.191 -21.799  0.00  0.00    +0.000 A 
ATOM     11  N   UNL     1     -44.673 -18.389 -23.174  0.00  0.00    +0.000 N 
ATOM     12  C   UNL     1     -45.720 -18.869 -24.080  0.00  0.00    +0.000 C 
ATOM     13  C   UNL     1     -45.138 -19.275 -25.434  0.00  0.00    +0.000 C 
ATOM     14  O   UNL     1     -44.187 -18.333 -25.848  0.00  0.00    +0.000 OA
ATOM     15  C   UNL     1     -43.065 -18.571 -25.043  0.00  0.00    +0.000 C 
ATOM     16  C   UNL     1     -43.318 -18.053 -23.629  0.00  0.00    +0.000 C 
ENDROOT
BRANCH   8  17
ATOM     17  C   UNL     1     -44.931 -20.227 -18.682  0.00  0.00    +0.000 C 
ATOM     18  O   UNL     1     -45.881 -21.037 -18.519  0.00  0.00    +0.000 OA
ATOM     19  N   UNL     1     -43.724 -20.417 -17.931  0.00  0.00    +0.000 N 
ATOM     20  H   UNL     1     -43.816 -20.783 -17.021  0.00  0.00    +0.000 HD
BRANCH  19  21
ATOM     21  C   UNL     1     -42.396 -20.126 -18.385  0.00  0.00    +0.000 A 
ATOM     22  C   UNL     1     -41.684 -19.085 -17.778  0.00  0.00    +0.000 A 
ATOM     23  C   UNL     1     -40.373 -18.799 -18.173  0.00  0.00    +0.000 A 
ATOM     24  C   UNL     1     -39.767 -19.563 -19.173  0.00  0.00    +0.000 A 
ATOM     25  O   UNL     1     -38.451 -19.310 -19.570  0.00  0.00    +0.000 OA
ATOM     26  C   UNL     1     -37.734 -20.252 -20.370  0.00  0.00    +0.000 C 
ATOM     27  C   UNL     1     -38.659 -20.864 -21.424  0.00  0.00    +0.000 C 
ATOM     28  O   UNL     1     -39.864 -21.330 -20.813  0.00  0.00    +0.000 OA
ATOM     29  C   UNL     1     -40.477 -20.601 -19.791  0.00  0.00    +0.000 A 
ATOM     30  C   UNL     1     -41.780 -20.895 -19.386  0.00  0.00    +0.000 A 
ENDBRANCH  19  21
ENDBRANCH   8  17
TORSDOF 2
ENDMDL
