MODEL 1
REMARK VINA RESULT:      -6.6      0.000      0.000
REMARK  Name = ZINC000032760773
REMARK  3 active torsions:
REMARK  status: ('A' for Active; 'I' for Inactive)
REMARK    1  A    between atoms: N_2  and  C_17
REMARK    2  A    between atoms: C_3  and  C_5
REMARK    3  A    between atoms: C_17  and  C_18
REMARK                            x       y       z     vdW  Elec       q    Type
REMARK                         _______ _______ _______ _____ _____    ______ ____
ROOT
ATOM      1  C   UNL     1     -41.021 -20.912 -21.121  0.00  0.00    +0.000 C 
ATOM      2  N   UNL     1     -41.798 -20.202 -22.129  0.00  0.00    +0.000 N 
ATOM      3  C   UNL     1     -42.446 -20.949 -23.177  0.00  0.00    +0.000 C 
ATOM      4  O   UNL     1     -42.445 -22.210 -23.126  0.00  0.00    +0.000 OA
ENDROOT
BRANCH   3   5
ATOM      5  C   UNL     1     -43.100 -20.277 -24.329  0.00  0.00    +0.000 A 
ATOM      6  C   UNL     1     -44.484 -20.072 -24.296  0.00  0.00    +0.000 A 
ATOM      7  C   UNL     1     -45.126 -19.416 -25.345  0.00  0.00    +0.000 A 
ATOM      8  O   UNL     1     -46.372 -19.242 -25.307  0.00  0.00    +0.000 OA
ATOM      9  N   UNL     1     -44.411 -18.965 -26.407  0.00  0.00    +0.000 N 
ATOM     10  C   UNL     1     -43.066 -19.135 -26.483  0.00  0.00    +0.000 A 
ATOM     11  C   UNL     1     -42.371 -18.657 -27.599  0.00  0.00    +0.000 A 
ATOM     12  C   UNL     1     -40.989 -18.836 -27.694  0.00  0.00    +0.000 A 
ATOM     13  C   UNL     1     -40.296 -19.494 -26.675  0.00  0.00    +0.000 A 
ATOM     14  C   UNL     1     -40.983 -19.973 -25.556  0.00  0.00    +0.000 A 
ATOM     15  C   UNL     1     -42.371 -19.796 -25.441  0.00  0.00    +0.000 A 
ATOM     16  H   UNL     1     -44.880 -18.502 -27.139  0.00  0.00    +0.000 HD
ENDBRANCH   3   5
BRANCH   2  17
ATOM     17  C   UNL     1     -42.123 -18.798 -21.893  0.00  0.00    +0.000 C 
BRANCH  17  18
ATOM     18  C   UNL     1     -43.445 -18.660 -21.212  0.00  0.00    +0.000 A 
ATOM     19  C   UNL     1     -44.403 -17.765 -21.703  0.00  0.00    +0.000 A 
ATOM     20  C   UNL     1     -45.633 -17.629 -21.054  0.00  0.00    +0.000 A 
ATOM     21  C   UNL     1     -45.908 -18.384 -19.910  0.00  0.00    +0.000 A 
ATOM     22  F   UNL     1     -47.102 -18.248 -19.284  0.00  0.00    +0.000 F 
ATOM     23  C   UNL     1     -44.949 -19.276 -19.414  0.00  0.00    +0.000 A 
ATOM     24  F   UNL     1     -45.208 -20.011 -18.304  0.00  0.00    +0.000 F 
ATOM     25  C   UNL     1     -43.720 -19.412 -20.065  0.00  0.00    +0.000 A 
ENDBRANCH  17  18
ENDBRANCH   2  17
TORSDOF 3
ENDMDL
MODEL 2
REMARK VINA RESULT:      -6.5      2.210      3.134
REMARK  Name = ZINC000032760773
REMARK  3 active torsions:
REMARK  status: ('A' for Active; 'I' for Inactive)
REMARK    1  A    between atoms: N_2  and  C_17
REMARK    2  A    between atoms: C_3  and  C_5
REMARK    3  A    between atoms: C_17  and  C_18
REMARK                            x       y       z     vdW  Elec       q    Type
REMARK                         _______ _______ _______ _____ _____    ______ ____
ROOT
ATOM      1  C   UNL     1     -43.355 -21.037 -23.833  0.00  0.00    +0.000 C 
ATOM      2  N   UNL     1     -43.656 -19.631 -24.068  0.00  0.00    +0.000 N 
ATOM      3  C   UNL     1     -44.680 -19.276 -25.017  0.00  0.00    +0.000 C 
ATOM      4  O   UNL     1     -45.390 -20.186 -25.526  0.00  0.00    +0.000 OA
ENDROOT
BRANCH   3   5
ATOM      5  C   UNL     1     -44.910 -17.868 -25.431  0.00  0.00    +0.000 A 
ATOM      6  C   UNL     1     -45.911 -17.130 -24.789  0.00  0.00    +0.000 A 
ATOM      7  C   UNL     1     -46.133 -15.796 -25.129  0.00  0.00    +0.000 A 
ATOM      8  O   UNL     1     -47.039 -15.143 -24.549  0.00  0.00    +0.000 OA
ATOM      9  N   UNL     1     -45.375 -15.201 -26.085  0.00  0.00    +0.000 N 
ATOM     10  C   UNL     1     -44.389 -15.873 -26.733  0.00  0.00    +0.000 A 
ATOM     11  C   UNL     1     -43.636 -15.220 -27.715  0.00  0.00    +0.000 A 
ATOM     12  C   UNL     1     -42.627 -15.905 -28.396  0.00  0.00    +0.000 A 
ATOM     13  C   UNL     1     -42.367 -17.245 -28.100  0.00  0.00    +0.000 A 
ATOM     14  C   UNL     1     -43.114 -17.905 -27.121  0.00  0.00    +0.000 A 
ATOM     15  C   UNL     1     -44.127 -17.230 -26.421  0.00  0.00    +0.000 A 
ATOM     16  H   UNL     1     -45.543 -14.257 -26.313  0.00  0.00    +0.000 HD
ENDBRANCH   3   5
BRANCH   2  17
ATOM     17  C   UNL     1     -43.112 -18.641 -23.142  0.00  0.00    +0.000 C 
BRANCH  17  18
ATOM     18  C   UNL     1     -43.529 -18.933 -21.738  0.00  0.00    +0.000 A 
ATOM     19  C   UNL     1     -42.581 -19.324 -20.786  0.00  0.00    +0.000 A 
ATOM     20  C   UNL     1     -42.978 -19.610 -19.477  0.00  0.00    +0.000 A 
ATOM     21  C   UNL     1     -44.326 -19.509 -19.116  0.00  0.00    +0.000 A 
ATOM     22  F   UNL     1     -44.705 -19.787 -17.846  0.00  0.00    +0.000 F 
ATOM     23  C   UNL     1     -45.277 -19.121 -20.068  0.00  0.00    +0.000 A 
ATOM     24  F   UNL     1     -46.585 -19.022 -19.726  0.00  0.00    +0.000 F 
ATOM     25  C   UNL     1     -44.878 -18.835 -21.377  0.00  0.00    +0.000 A 
ENDBRANCH  17  18
ENDBRANCH   2  17
TORSDOF 3
ENDMDL
MODEL 3
REMARK VINA RESULT:      -6.3      2.554      3.633
REMARK  Name = ZINC000032760773
REMARK  3 active torsions:
REMARK  status: ('A' for Active; 'I' for Inactive)
REMARK    1  A    between atoms: N_2  and  C_17
REMARK    2  A    between atoms: C_3  and  C_5
REMARK    3  A    between atoms: C_17  and  C_18
REMARK                            x       y       z     vdW  Elec       q    Type
REMARK                         _______ _______ _______ _____ _____    ______ ____
ROOT
ATOM      1  C   UNL     1     -41.208 -15.860 -20.511  0.00  0.00    +0.000 C 
ATOM      2  N   UNL     1     -41.803 -17.098 -20.998  0.00  0.00    +0.000 N 
ATOM      3  C   UNL     1     -41.600 -17.488 -22.370  0.00  0.00    +0.000 C 
ATOM      4  O   UNL     1     -40.801 -16.825 -23.087  0.00  0.00    +0.000 OA
ENDROOT
BRANCH   3   5
ATOM      5  C   UNL     1     -42.322 -18.638 -22.972  0.00  0.00    +0.000 A 
ATOM      6  C   UNL     1     -41.769 -19.919 -22.858  0.00  0.00    +0.000 A 
ATOM      7  C   UNL     1     -42.435 -21.025 -23.384  0.00  0.00    +0.000 A 
ATOM      8  O   UNL     1     -41.926 -22.171 -23.280  0.00  0.00    +0.000 OA
ATOM      9  N   UNL     1     -43.631 -20.869 -24.006  0.00  0.00    +0.000 N 
ATOM     10  C   UNL     1     -44.211 -19.648 -24.138  0.00  0.00    +0.000 A 
ATOM     11  C   UNL     1     -45.443 -19.534 -24.791  0.00  0.00    +0.000 A 
ATOM     12  C   UNL     1     -46.043 -18.282 -24.943  0.00  0.00    +0.000 A 
ATOM     13  C   UNL     1     -45.416 -17.139 -24.443  0.00  0.00    +0.000 A 
ATOM     14  C   UNL     1     -44.186 -17.244 -23.787  0.00  0.00    +0.000 A 
ATOM     15  C   UNL     1     -43.571 -18.495 -23.620  0.00  0.00    +0.000 A 
ATOM     16  H   UNL     1     -44.090 -21.661 -24.371  0.00  0.00    +0.000 HD
ENDBRANCH   3   5
BRANCH   2  17
ATOM     17  C   UNL     1     -42.349 -18.036 -20.021  0.00  0.00    +0.000 C 
BRANCH  17  18
ATOM     18  C   UNL     1     -43.779 -17.728 -19.721  0.00  0.00    +0.000 A 
ATOM     19  C   UNL     1     -44.113 -16.607 -18.953  0.00  0.00    +0.000 A 
ATOM     20  C   UNL     1     -45.452 -16.330 -18.663  0.00  0.00    +0.000 A 
ATOM     21  C   UNL     1     -46.460 -17.175 -19.136  0.00  0.00    +0.000 A 
ATOM     22  F   UNL     1     -47.756 -16.902 -18.851  0.00  0.00    +0.000 F 
ATOM     23  C   UNL     1     -46.127 -18.300 -19.901  0.00  0.00    +0.000 A 
ATOM     24  F   UNL     1     -47.099 -19.125 -20.362  0.00  0.00    +0.000 F 
ATOM     25  C   UNL     1     -44.788 -18.575 -20.191  0.00  0.00    +0.000 A 
ENDBRANCH  17  18
ENDBRANCH   2  17
TORSDOF 3
ENDMDL
