MODEL 1
REMARK VINA RESULT:      -7.2      0.000      0.000
REMARK  Name = ZINC000031810633
REMARK  1 active torsions:
REMARK  status: ('A' for Active; 'I' for Inactive)
REMARK    1  A    between atoms: C_7  and  C_24
REMARK                            x       y       z     vdW  Elec       q    Type
REMARK                         _______ _______ _______ _____ _____    ______ ____
ROOT
ATOM      1  C   UNL     1     -47.333  -3.878 -34.051  0.00  0.00    +0.000 C 
ATOM      2  C   UNL     1     -46.605  -5.152 -33.795  0.00  0.00    +0.000 A 
ATOM      3  N   UNL     1     -46.724  -6.242 -34.573  0.00  0.00    +0.000 NA
ATOM      4  N   UNL     1     -45.949  -7.185 -34.063  0.00  0.00    +0.000 N 
ATOM      5  C   UNL     1     -45.301  -6.706 -32.976  0.00  0.00    +0.000 A 
ATOM      6  C   UNL     1     -45.716  -5.393 -32.761  0.00  0.00    +0.000 A 
ATOM      7  C   UNL     1     -45.322  -4.379 -31.722  0.00  0.00    +0.000 C 
ATOM      8  S   UNL     1     -44.813  -5.054 -30.111  0.00  0.00    +0.000 S 
ATOM      9  C   UNL     1     -43.256  -5.687 -30.775  0.00  0.00    +0.000 C 
ATOM     10  C   UNL     1     -43.430  -7.096 -31.206  0.00  0.00    +0.000 C 
ATOM     11  O   UNL     1     -42.737  -7.983 -30.646  0.00  0.00    +0.000 OA
ATOM     12  N   UNL     1     -44.326  -7.478 -32.255  0.00  0.00    +0.000 N 
ATOM     13  H   UNL     1     -44.264  -8.423 -32.526  0.00  0.00    +0.000 HD
ATOM     14  C   UNL     1     -45.809  -8.480 -34.665  0.00  0.00    +0.000 A 
ATOM     15  N   UNL     1     -45.803  -8.604 -36.027  0.00  0.00    +0.000 NA
ATOM     16  C   UNL     1     -45.700  -9.829 -36.635  0.00  0.00    +0.000 A 
ATOM     17  N   UNL     1     -45.614 -10.969 -35.887  0.00  0.00    +0.000 NA
ATOM     18  C   UNL     1     -45.634 -10.849 -34.538  0.00  0.00    +0.000 A 
ATOM     19  N   UNL     1     -45.618 -11.849 -33.649  0.00  0.00    +0.000 N 
ATOM     20  C   UNL     1     -45.719 -11.188 -32.463  0.00  0.00    +0.000 A 
ATOM     21  N   UNL     1     -45.800  -9.835 -32.591  0.00  0.00    +0.000 NA
ATOM     22  C   UNL     1     -45.733  -9.655 -33.917  0.00  0.00    +0.000 A 
ATOM     23  H   UNL     1     -45.549 -12.818 -33.810  0.00  0.00    +0.000 HD
ENDROOT
BRANCH   7  24
ATOM     24  C   UNL     1     -44.475  -3.234 -32.211  0.00  0.00    +0.000 A 
ATOM     25  C   UNL     1     -43.574  -3.488 -33.252  0.00  0.00    +0.000 A 
ATOM     26  C   UNL     1     -42.763  -2.468 -33.755  0.00  0.00    +0.000 A 
ATOM     27  C   UNL     1     -42.850  -1.180 -33.220  0.00  0.00    +0.000 A 
ATOM     28  F   UNL     1     -42.064  -0.191 -33.708  0.00  0.00    +0.000 F 
ATOM     29  C   UNL     1     -43.747  -0.913 -32.184  0.00  0.00    +0.000 A 
ATOM     30  C   UNL     1     -44.561  -1.931 -31.677  0.00  0.00    +0.000 A 
ATOM     31  F   UNL     1     -45.422  -1.637 -30.672  0.00  0.00    +0.000 F 
ENDBRANCH   7  24
TORSDOF 1
ENDMDL
MODEL 2
REMARK VINA RESULT:      -6.7      4.798      7.315
REMARK  Name = ZINC000031810633
REMARK  1 active torsions:
REMARK  status: ('A' for Active; 'I' for Inactive)
REMARK    1  A    between atoms: C_7  and  C_24
REMARK                            x       y       z     vdW  Elec       q    Type
REMARK                         _______ _______ _______ _____ _____    ______ ____
ROOT
ATOM      1  C   UNL     1     -47.375  -4.503 -26.214  0.00  0.00    +0.000 C 
ATOM      2  C   UNL     1     -46.908  -4.749 -27.606  0.00  0.00    +0.000 A 
ATOM      3  N   UNL     1     -46.780  -3.779 -28.527  0.00  0.00    +0.000 NA
ATOM      4  N   UNL     1     -46.349  -4.340 -29.645  0.00  0.00    +0.000 N 
ATOM      5  C   UNL     1     -46.165  -5.666 -29.450  0.00  0.00    +0.000 A 
ATOM      6  C   UNL     1     -46.535  -5.972 -28.141  0.00  0.00    +0.000 A 
ATOM      7  C   UNL     1     -46.525  -7.268 -27.378  0.00  0.00    +0.000 C 
ATOM      8  S   UNL     1     -46.764  -8.773 -28.371  0.00  0.00    +0.000 S 
ATOM      9  C   UNL     1     -45.122  -8.644 -29.113  0.00  0.00    +0.000 C 
ATOM     10  C   UNL     1     -45.207  -7.897 -30.393  0.00  0.00    +0.000 C 
ATOM     11  O   UNL     1     -44.867  -8.484 -31.452  0.00  0.00    +0.000 OA
ATOM     12  N   UNL     1     -45.625  -6.530 -30.464  0.00  0.00    +0.000 N 
ATOM     13  H   UNL     1     -45.527  -6.115 -31.351  0.00  0.00    +0.000 HD
ATOM     14  C   UNL     1     -46.070  -3.584 -30.832  0.00  0.00    +0.000 A 
ATOM     15  N   UNL     1     -45.521  -2.335 -30.735  0.00  0.00    +0.000 NA
ATOM     16  C   UNL     1     -45.268  -1.574 -31.848  0.00  0.00    +0.000 A 
ATOM     17  N   UNL     1     -45.576  -2.044 -33.094  0.00  0.00    +0.000 NA
ATOM     18  C   UNL     1     -46.133  -3.275 -33.190  0.00  0.00    +0.000 A 
ATOM     19  N   UNL     1     -46.552  -3.874 -34.311  0.00  0.00    +0.000 N 
ATOM     20  C   UNL     1     -47.077  -5.039 -33.842  0.00  0.00    +0.000 A 
ATOM     21  N   UNL     1     -47.002  -5.173 -32.489  0.00  0.00    +0.000 NA
ATOM     22  C   UNL     1     -46.389  -4.043 -32.110  0.00  0.00    +0.000 A 
ATOM     23  H   UNL     1     -46.494  -3.555 -35.241  0.00  0.00    +0.000 HD
ENDROOT
BRANCH   7  24
ATOM     24  C   UNL     1     -45.472  -7.390 -26.307  0.00  0.00    +0.000 A 
ATOM     25  C   UNL     1     -44.163  -7.018 -26.636  0.00  0.00    +0.000 A 
ATOM     26  C   UNL     1     -43.141  -7.103 -25.687  0.00  0.00    +0.000 A 
ATOM     27  C   UNL     1     -43.422  -7.561 -24.398  0.00  0.00    +0.000 A 
ATOM     28  F   UNL     1     -42.431  -7.644 -23.478  0.00  0.00    +0.000 F 
ATOM     29  C   UNL     1     -44.725  -7.933 -24.057  0.00  0.00    +0.000 A 
ATOM     30  C   UNL     1     -45.751  -7.850 -25.003  0.00  0.00    +0.000 A 
ATOM     31  F   UNL     1     -47.004  -8.217 -24.638  0.00  0.00    +0.000 F 
ENDBRANCH   7  24
TORSDOF 1
ENDMDL
MODEL 3
REMARK VINA RESULT:      -6.7      2.564      3.472
REMARK  Name = ZINC000031810633
REMARK  1 active torsions:
REMARK  status: ('A' for Active; 'I' for Inactive)
REMARK    1  A    between atoms: C_7  and  C_24
REMARK                            x       y       z     vdW  Elec       q    Type
REMARK                         _______ _______ _______ _____ _____    ______ ____
ROOT
ATOM      1  C   UNL     1     -45.369  -6.523 -34.816  0.00  0.00    +0.000 C 
ATOM      2  C   UNL     1     -45.335  -7.085 -33.437  0.00  0.00    +0.000 A 
ATOM      3  N   UNL     1     -44.842  -8.301 -33.144  0.00  0.00    +0.000 NA
ATOM      4  N   UNL     1     -44.968  -8.481 -31.839  0.00  0.00    +0.000 N 
ATOM      5  C   UNL     1     -45.510  -7.377 -31.275  0.00  0.00    +0.000 A 
ATOM      6  C   UNL     1     -45.779  -6.455 -32.286  0.00  0.00    +0.000 A 
ATOM      7  C   UNL     1     -46.360  -5.068 -32.243  0.00  0.00    +0.000 C 
ATOM      8  S   UNL     1     -47.532  -4.744 -30.891  0.00  0.00    +0.000 S 
ATOM      9  C   UNL     1     -46.226  -4.752 -29.644  0.00  0.00    +0.000 C 
ATOM     10  C   UNL     1     -46.086  -6.114 -29.071  0.00  0.00    +0.000 C 
ATOM     11  O   UNL     1     -46.291  -6.270 -27.841  0.00  0.00    +0.000 OA
ATOM     12  N   UNL     1     -45.695  -7.245 -29.856  0.00  0.00    +0.000 N 
ATOM     13  H   UNL     1     -45.525  -8.066 -29.339  0.00  0.00    +0.000 HD
ATOM     14  C   UNL     1     -44.509  -9.667 -31.175  0.00  0.00    +0.000 A 
ATOM     15  N   UNL     1     -43.360 -10.282 -31.589  0.00  0.00    +0.000 NA
ATOM     16  C   UNL     1     -42.909 -11.434 -30.996  0.00  0.00    +0.000 A 
ATOM     17  N   UNL     1     -43.612 -12.009 -29.975  0.00  0.00    +0.000 NA
ATOM     18  C   UNL     1     -44.758 -11.409 -29.574  0.00  0.00    +0.000 A 
ATOM     19  N   UNL     1     -45.605 -11.852 -28.637  0.00  0.00    +0.000 N 
ATOM     20  C   UNL     1     -46.600 -10.925 -28.678  0.00  0.00    +0.000 A 
ATOM     21  N   UNL     1     -46.401  -9.943 -29.600  0.00  0.00    +0.000 NA
ATOM     22  C   UNL     1     -45.221 -10.274 -30.141  0.00  0.00    +0.000 A 
ATOM     23  H   UNL     1     -45.527 -12.647 -28.060  0.00  0.00    +0.000 HD
ENDROOT
BRANCH   7  24
ATOM     24  C   UNL     1     -45.394  -3.944 -32.511  0.00  0.00    +0.000 A 
ATOM     25  C   UNL     1     -44.093  -4.068 -32.007  0.00  0.00    +0.000 A 
ATOM     26  C   UNL     1     -43.149  -3.063 -32.224  0.00  0.00    +0.000 A 
ATOM     27  C   UNL     1     -43.497  -1.923 -32.953  0.00  0.00    +0.000 A 
ATOM     28  F   UNL     1     -42.581  -0.949 -33.164  0.00  0.00    +0.000 F 
ATOM     29  C   UNL     1     -44.790  -1.789 -33.464  0.00  0.00    +0.000 A 
ATOM     30  C   UNL     1     -45.740  -2.792 -33.248  0.00  0.00    +0.000 A 
ATOM     31  F   UNL     1     -46.985  -2.630 -33.760  0.00  0.00    +0.000 F 
ENDBRANCH   7  24
TORSDOF 1
ENDMDL
