MODEL 1
REMARK VINA RESULT:      -6.8      0.000      0.000
REMARK  Name = ZINC000067641329 MCULE-5536280821 MolPort-016-591-893
REMARK  3 active torsions:
REMARK  status: ('A' for Active; 'I' for Inactive)
REMARK    1  A    between atoms: C_1  and  C_6
REMARK    2  A    between atoms: N_2  and  C_19
REMARK    3  A    between atoms: C_4  and  C_26
REMARK                            x       y       z     vdW  Elec       q    Type
REMARK                         _______ _______ _______ _____ _____    ______ ____
ROOT
ATOM      1  C   UNL     1     -46.511  -5.483 -29.634  0.00  0.00    +0.000 A 
ATOM      2  N   UNL     1     -46.504  -4.166 -29.952  0.00  0.00    +0.000 N 
ATOM      3  N   UNL     1     -46.946  -3.498 -28.901  0.00  0.00    +0.000 NA
ATOM      4  C   UNL     1     -47.218  -4.424 -27.962  0.00  0.00    +0.000 A 
ATOM      5  N   UNL     1     -46.958  -5.681 -28.377  0.00  0.00    +0.000 NA
ENDROOT
BRANCH   1   6
ATOM      6  C   UNL     1     -45.982  -6.581 -30.473  0.00  0.00    +0.000 A 
ATOM      7  C   UNL     1     -46.833  -7.201 -31.395  0.00  0.00    +0.000 A 
ATOM      8  C   UNL     1     -46.348  -8.212 -32.226  0.00  0.00    +0.000 A 
ATOM      9  O   UNL     1     -47.119  -8.772 -33.047  0.00  0.00    +0.000 OA
ATOM     10  N   UNL     1     -45.045  -8.592 -32.152  0.00  0.00    +0.000 N 
ATOM     11  C   UNL     1     -44.182  -8.008 -31.280  0.00  0.00    +0.000 A 
ATOM     12  C   UNL     1     -42.849  -8.429 -31.238  0.00  0.00    +0.000 A 
ATOM     13  C   UNL     1     -41.956  -7.838 -30.342  0.00  0.00    +0.000 A 
ATOM     14  C   UNL     1     -42.390  -6.826 -29.483  0.00  0.00    +0.000 A 
ATOM     15  F   UNL     1     -41.521  -6.257 -28.614  0.00  0.00    +0.000 F 
ATOM     16  C   UNL     1     -43.721  -6.399 -29.518  0.00  0.00    +0.000 A 
ATOM     17  C   UNL     1     -44.629  -6.979 -30.418  0.00  0.00    +0.000 A 
ATOM     18  H   UNL     1     -44.720  -9.307 -32.745  0.00  0.00    +0.000 HD
ENDBRANCH   1   6
BRANCH   2  19
ATOM     19  C   UNL     1     -46.186  -3.534 -31.205  0.00  0.00    +0.000 A 
ATOM     20  C   UNL     1     -46.879  -3.861 -32.378  0.00  0.00    +0.000 A 
ATOM     21  C   UNL     1     -46.572  -3.200 -33.569  0.00  0.00    +0.000 A 
ATOM     22  N   UNL     1     -45.613  -2.236 -33.585  0.00  0.00    +0.000 NA
ATOM     23  C   UNL     1     -44.936  -1.888 -32.458  0.00  0.00    +0.000 A 
ATOM     24  C   UNL     1     -43.901  -0.823 -32.514  0.00  0.00    +0.000 C 
ATOM     25  C   UNL     1     -45.216  -2.526 -31.249  0.00  0.00    +0.000 A 
ENDBRANCH   2  19
BRANCH   4  26
ATOM     26  C   UNL     1     -47.747  -4.107 -26.603  0.00  0.00    +0.000 C 
ATOM     27  C   UNL     1     -47.439  -2.668 -26.238  0.00  0.00    +0.000 C 
ATOM     28  C   UNL     1     -47.147  -5.040 -25.570  0.00  0.00    +0.000 C 
ENDBRANCH   4  26
TORSDOF 3
ENDMDL
MODEL 2
REMARK VINA RESULT:      -6.4      3.969      6.619
REMARK  Name = ZINC000067641329 MCULE-5536280821 MolPort-016-591-893
REMARK  3 active torsions:
REMARK  status: ('A' for Active; 'I' for Inactive)
REMARK    1  A    between atoms: C_1  and  C_6
REMARK    2  A    between atoms: N_2  and  C_19
REMARK    3  A    between atoms: C_4  and  C_26
REMARK                            x       y       z     vdW  Elec       q    Type
REMARK                         _______ _______ _______ _____ _____    ______ ____
ROOT
ATOM      1  C   UNL     1     -42.591  -5.073 -33.420  0.00  0.00    +0.000 A 
ATOM      2  N   UNL     1     -42.404  -3.872 -34.019  0.00  0.00    +0.000 N 
ATOM      3  N   UNL     1     -41.947  -4.098 -35.238  0.00  0.00    +0.000 NA
ATOM      4  C   UNL     1     -41.861  -5.437 -35.357  0.00  0.00    +0.000 A 
ATOM      5  N   UNL     1     -42.256  -6.088 -34.243  0.00  0.00    +0.000 NA
ENDROOT
BRANCH   1   6
ATOM      6  C   UNL     1     -43.204  -5.294 -32.092  0.00  0.00    +0.000 A 
ATOM      7  C   UNL     1     -42.376  -5.589 -31.003  0.00  0.00    +0.000 A 
ATOM      8  C   UNL     1     -42.925  -5.763 -29.733  0.00  0.00    +0.000 A 
ATOM      9  O   UNL     1     -42.177  -6.037 -28.759  0.00  0.00    +0.000 OA
ATOM     10  N   UNL     1     -44.265  -5.636 -29.543  0.00  0.00    +0.000 N 
ATOM     11  C   UNL     1     -45.104  -5.338 -30.570  0.00  0.00    +0.000 A 
ATOM     12  C   UNL     1     -46.476  -5.216 -30.330  0.00  0.00    +0.000 A 
ATOM     13  C   UNL     1     -47.346  -4.915 -31.381  0.00  0.00    +0.000 A 
ATOM     14  C   UNL     1     -46.850  -4.736 -32.674  0.00  0.00    +0.000 A 
ATOM     15  F   UNL     1     -47.697  -4.447 -33.690  0.00  0.00    +0.000 F 
ATOM     16  C   UNL     1     -45.479  -4.857 -32.922  0.00  0.00    +0.000 A 
ATOM     17  C   UNL     1     -44.592  -5.154 -31.876  0.00  0.00    +0.000 A 
ATOM     18  H   UNL     1     -44.635  -5.762 -28.641  0.00  0.00    +0.000 HD
ENDBRANCH   1   6
BRANCH   2  19
ATOM     19  C   UNL     1     -42.555  -2.549 -33.473  0.00  0.00    +0.000 A 
ATOM     20  C   UNL     1     -43.796  -1.899 -33.480  0.00  0.00    +0.000 A 
ATOM     21  C   UNL     1     -43.916  -0.632 -32.906  0.00  0.00    +0.000 A 
ATOM     22  N   UNL     1     -42.835  -0.039 -32.333  0.00  0.00    +0.000 NA
ATOM     23  C   UNL     1     -41.622  -0.653 -32.298  0.00  0.00    +0.000 A 
ATOM     24  C   UNL     1     -40.466   0.024 -31.654  0.00  0.00    +0.000 C 
ATOM     25  C   UNL     1     -41.464  -1.921 -32.861  0.00  0.00    +0.000 A 
ENDBRANCH   2  19
BRANCH   4  26
ATOM     26  C   UNL     1     -41.384  -6.138 -36.585  0.00  0.00    +0.000 C 
ATOM     27  C   UNL     1     -40.513  -5.216 -37.416  0.00  0.00    +0.000 C 
ATOM     28  C   UNL     1     -42.561  -6.618 -37.412  0.00  0.00    +0.000 C 
ENDBRANCH   4  26
TORSDOF 3
ENDMDL
MODEL 3
REMARK VINA RESULT:      -6.3     12.573     14.374
REMARK  Name = ZINC000067641329 MCULE-5536280821 MolPort-016-591-893
REMARK  3 active torsions:
REMARK  status: ('A' for Active; 'I' for Inactive)
REMARK    1  A    between atoms: C_1  and  C_6
REMARK    2  A    between atoms: N_2  and  C_19
REMARK    3  A    between atoms: C_4  and  C_26
REMARK                            x       y       z     vdW  Elec       q    Type
REMARK                         _______ _______ _______ _____ _____    ______ ____
ROOT
ATOM      1  C   UNL     1     -45.182 -17.147 -22.061  0.00  0.00    +0.000 A 
ATOM      2  N   UNL     1     -44.918 -15.868 -22.420  0.00  0.00    +0.000 N 
ATOM      3  N   UNL     1     -45.379 -15.080 -21.464  0.00  0.00    +0.000 NA
ATOM      4  C   UNL     1     -45.918 -15.898 -20.540  0.00  0.00    +0.000 A 
ATOM      5  N   UNL     1     -45.816 -17.202 -20.872  0.00  0.00    +0.000 NA
ENDROOT
BRANCH   1   6
ATOM      6  C   UNL     1     -44.734 -18.360 -22.781  0.00  0.00    +0.000 A 
ATOM      7  C   UNL     1     -45.408 -18.745 -23.945  0.00  0.00    +0.000 A 
ATOM      8  C   UNL     1     -44.982 -19.862 -24.665  0.00  0.00    +0.000 A 
ATOM      9  O   UNL     1     -45.596 -20.209 -25.706  0.00  0.00    +0.000 OA
ATOM     10  N   UNL     1     -43.903 -20.574 -24.245  0.00  0.00    +0.000 N 
ATOM     11  C   UNL     1     -43.213 -20.228 -23.127  0.00  0.00    +0.000 A 
ATOM     12  C   UNL     1     -42.108 -20.989 -22.732  0.00  0.00    +0.000 A 
ATOM     13  C   UNL     1     -41.395 -20.644 -21.581  0.00  0.00    +0.000 A 
ATOM     14  C   UNL     1     -41.783 -19.538 -20.821  0.00  0.00    +0.000 A 
ATOM     15  F   UNL     1     -41.091 -19.208 -19.705  0.00  0.00    +0.000 F 
ATOM     16  C   UNL     1     -42.887 -18.772 -21.209  0.00  0.00    +0.000 A 
ATOM     17  C   UNL     1     -43.609 -19.104 -22.366  0.00  0.00    +0.000 A 
ATOM     18  H   UNL     1     -43.616 -21.360 -24.764  0.00  0.00    +0.000 HD
ENDBRANCH   1   6
BRANCH   2  19
ATOM     19  C   UNL     1     -44.340 -15.365 -23.638  0.00  0.00    +0.000 A 
ATOM     20  C   UNL     1     -42.953 -15.220 -23.775  0.00  0.00    +0.000 A 
ATOM     21  C   UNL     1     -42.422 -14.766 -24.984  0.00  0.00    +0.000 A 
ATOM     22  N   UNL     1     -43.248 -14.478 -26.025  0.00  0.00    +0.000 NA
ATOM     23  C   UNL     1     -44.596 -14.624 -25.925  0.00  0.00    +0.000 A 
ATOM     24  C   UNL     1     -45.465 -14.308 -27.088  0.00  0.00    +0.000 C 
ATOM     25  C   UNL     1     -45.164 -15.076 -24.732  0.00  0.00    +0.000 A 
ENDBRANCH   2  19
BRANCH   4  26
ATOM     26  C   UNL     1     -46.562 -15.426 -19.279  0.00  0.00    +0.000 C 
ATOM     27  C   UNL     1     -47.379 -16.538 -18.653  0.00  0.00    +0.000 C 
ATOM     28  C   UNL     1     -47.449 -14.227 -19.555  0.00  0.00    +0.000 C 
ENDBRANCH   4  26
TORSDOF 3
ENDMDL
