MODEL 1
REMARK VINA RESULT:      -7.0      0.000      0.000
REMARK  Name = ZINC000031811572
REMARK  1 active torsions:
REMARK  status: ('A' for Active; 'I' for Inactive)
REMARK    1  A    between atoms: C_7  and  C_24
REMARK                            x       y       z     vdW  Elec       q    Type
REMARK                         _______ _______ _______ _____ _____    ______ ____
ROOT
ATOM      1  C   UNL     1     -47.339  -3.919 -33.970  0.00  0.00    +0.000 C 
ATOM      2  C   UNL     1     -46.605  -5.198 -33.767  0.00  0.00    +0.000 A 
ATOM      3  N   UNL     1     -46.781  -6.285 -34.539  0.00  0.00    +0.000 NA
ATOM      4  N   UNL     1     -45.980  -7.235 -34.084  0.00  0.00    +0.000 N 
ATOM      5  C   UNL     1     -45.260  -6.763 -33.040  0.00  0.00    +0.000 A 
ATOM      6  C   UNL     1     -45.651  -5.448 -32.795  0.00  0.00    +0.000 A 
ATOM      7  C   UNL     1     -45.185  -4.443 -31.780  0.00  0.00    +0.000 C 
ATOM      8  S   UNL     1     -44.573  -5.125 -30.208  0.00  0.00    +0.000 S 
ATOM      9  C   UNL     1     -43.068  -5.764 -30.975  0.00  0.00    +0.000 C 
ATOM     10  C   UNL     1     -43.279  -7.170 -31.399  0.00  0.00    +0.000 C 
ATOM     11  O   UNL     1     -42.556  -8.064 -30.888  0.00  0.00    +0.000 OA
ATOM     12  N   UNL     1     -44.244  -7.544 -32.387  0.00  0.00    +0.000 N 
ATOM     13  H   UNL     1     -44.207  -8.488 -32.664  0.00  0.00    +0.000 HD
ATOM     14  C   UNL     1     -45.887  -8.528 -34.700  0.00  0.00    +0.000 A 
ATOM     15  N   UNL     1     -45.995  -8.649 -36.057  0.00  0.00    +0.000 NA
ATOM     16  C   UNL     1     -45.939  -9.872 -36.674  0.00  0.00    +0.000 A 
ATOM     17  N   UNL     1     -45.791 -11.015 -35.938  0.00  0.00    +0.000 NA
ATOM     18  C   UNL     1     -45.699 -10.897 -34.592  0.00  0.00    +0.000 A 
ATOM     19  N   UNL     1     -45.608 -11.898 -33.707  0.00  0.00    +0.000 N 
ATOM     20  C   UNL     1     -45.613 -11.240 -32.517  0.00  0.00    +0.000 A 
ATOM     21  N   UNL     1     -45.706  -9.886 -32.636  0.00  0.00    +0.000 NA
ATOM     22  C   UNL     1     -45.748  -9.705 -33.962  0.00  0.00    +0.000 A 
ATOM     23  H   UNL     1     -45.553 -12.867 -33.877  0.00  0.00    +0.000 HD
ENDROOT
BRANCH   7  24
ATOM     24  C   UNL     1     -44.374  -3.289 -32.318  0.00  0.00    +0.000 A 
ATOM     25  C   UNL     1     -43.464  -3.437 -33.386  0.00  0.00    +0.000 A 
ATOM     26  F   UNL     1     -43.275  -4.636 -33.991  0.00  0.00    +0.000 F 
ATOM     27  C   UNL     1     -42.734  -2.336 -33.843  0.00  0.00    +0.000 A 
ATOM     28  C   UNL     1     -42.900  -1.085 -33.248  0.00  0.00    +0.000 A 
ATOM     29  C   UNL     1     -43.797  -0.931 -32.190  0.00  0.00    +0.000 A 
ATOM     30  C   UNL     1     -44.532  -2.024 -31.725  0.00  0.00    +0.000 A 
ATOM     31  F   UNL     1     -45.398  -1.847 -30.697  0.00  0.00    +0.000 F 
ENDBRANCH   7  24
TORSDOF 1
ENDMDL
MODEL 2
REMARK VINA RESULT:      -6.9      4.715      7.146
REMARK  Name = ZINC000031811572
REMARK  1 active torsions:
REMARK  status: ('A' for Active; 'I' for Inactive)
REMARK    1  A    between atoms: C_7  and  C_24
REMARK                            x       y       z     vdW  Elec       q    Type
REMARK                         _______ _______ _______ _____ _____    ______ ____
ROOT
ATOM      1  C   UNL     1     -47.405  -4.557 -26.209  0.00  0.00    +0.000 C 
ATOM      2  C   UNL     1     -46.943  -4.784 -27.606  0.00  0.00    +0.000 A 
ATOM      3  N   UNL     1     -46.798  -3.798 -28.509  0.00  0.00    +0.000 NA
ATOM      4  N   UNL     1     -46.377  -4.345 -29.637  0.00  0.00    +0.000 N 
ATOM      5  C   UNL     1     -46.217  -5.678 -29.467  0.00  0.00    +0.000 A 
ATOM      6  C   UNL     1     -46.592  -6.002 -28.164  0.00  0.00    +0.000 A 
ATOM      7  C   UNL     1     -46.606  -7.312 -27.428  0.00  0.00    +0.000 C 
ATOM      8  S   UNL     1     -46.870  -8.795 -28.448  0.00  0.00    +0.000 S 
ATOM      9  C   UNL     1     -45.226  -8.680 -29.189  0.00  0.00    +0.000 C 
ATOM     10  C   UNL     1     -45.299  -7.907 -30.453  0.00  0.00    +0.000 C 
ATOM     11  O   UNL     1     -44.970  -8.479 -31.524  0.00  0.00    +0.000 OA
ATOM     12  N   UNL     1     -45.693  -6.532 -30.499  0.00  0.00    +0.000 N 
ATOM     13  H   UNL     1     -45.589  -6.101 -31.378  0.00  0.00    +0.000 HD
ATOM     14  C   UNL     1     -46.084  -3.571 -30.810  0.00  0.00    +0.000 A 
ATOM     15  N   UNL     1     -45.534  -2.326 -30.688  0.00  0.00    +0.000 NA
ATOM     16  C   UNL     1     -45.269  -1.549 -31.786  0.00  0.00    +0.000 A 
ATOM     17  N   UNL     1     -45.566  -1.998 -33.042  0.00  0.00    +0.000 NA
ATOM     18  C   UNL     1     -46.125  -3.226 -33.164  0.00  0.00    +0.000 A 
ATOM     19  N   UNL     1     -46.535  -3.808 -34.298  0.00  0.00    +0.000 N 
ATOM     20  C   UNL     1     -47.068  -4.977 -33.851  0.00  0.00    +0.000 A 
ATOM     21  N   UNL     1     -47.005  -5.132 -32.500  0.00  0.00    +0.000 NA
ATOM     22  C   UNL     1     -46.393  -4.010 -32.098  0.00  0.00    +0.000 A 
ATOM     23  H   UNL     1     -46.468  -3.473 -35.222  0.00  0.00    +0.000 HD
ENDROOT
BRANCH   7  24
ATOM     24  C   UNL     1     -45.564  -7.474 -26.348  0.00  0.00    +0.000 A 
ATOM     25  C   UNL     1     -44.243  -6.999 -26.494  0.00  0.00    +0.000 A 
ATOM     26  F   UNL     1     -43.844  -6.362 -27.623  0.00  0.00    +0.000 F 
ATOM     27  C   UNL     1     -43.315  -7.179 -25.465  0.00  0.00    +0.000 A 
ATOM     28  C   UNL     1     -43.687  -7.829 -24.287  0.00  0.00    +0.000 A 
ATOM     29  C   UNL     1     -44.990  -8.303 -24.136  0.00  0.00    +0.000 A 
ATOM     30  C   UNL     1     -45.927  -8.128 -25.158  0.00  0.00    +0.000 A 
ATOM     31  F   UNL     1     -47.187  -8.597 -24.985  0.00  0.00    +0.000 F 
ENDBRANCH   7  24
TORSDOF 1
ENDMDL
MODEL 3
REMARK VINA RESULT:      -6.6      2.574      3.472
REMARK  Name = ZINC000031811572
REMARK  1 active torsions:
REMARK  status: ('A' for Active; 'I' for Inactive)
REMARK    1  A    between atoms: C_7  and  C_24
REMARK                            x       y       z     vdW  Elec       q    Type
REMARK                         _______ _______ _______ _____ _____    ______ ____
ROOT
ATOM      1  C   UNL     1     -45.343  -6.397 -34.842  0.00  0.00    +0.000 C 
ATOM      2  C   UNL     1     -45.346  -7.027 -33.493  0.00  0.00    +0.000 A 
ATOM      3  N   UNL     1     -44.890  -8.270 -33.254  0.00  0.00    +0.000 NA
ATOM      4  N   UNL     1     -45.041  -8.511 -31.962  0.00  0.00    +0.000 N 
ATOM      5  C   UNL     1     -45.564  -7.422 -31.352  0.00  0.00    +0.000 A 
ATOM      6  C   UNL     1     -45.791  -6.444 -32.319  0.00  0.00    +0.000 A 
ATOM      7  C   UNL     1     -46.337  -5.048 -32.214  0.00  0.00    +0.000 C 
ATOM      8  S   UNL     1     -47.521  -4.756 -30.865  0.00  0.00    +0.000 S 
ATOM      9  C   UNL     1     -46.235  -4.862 -29.601  0.00  0.00    +0.000 C 
ATOM     10  C   UNL     1     -46.142  -6.255 -29.097  0.00  0.00    +0.000 C 
ATOM     11  O   UNL     1     -46.371  -6.466 -27.878  0.00  0.00    +0.000 OA
ATOM     12  N   UNL     1     -45.769  -7.357 -29.930  0.00  0.00    +0.000 N 
ATOM     13  H   UNL     1     -45.630  -8.206 -29.453  0.00  0.00    +0.000 HD
ATOM     14  C   UNL     1     -44.625  -9.741 -31.352  0.00  0.00    +0.000 A 
ATOM     15  N   UNL     1     -43.499 -10.378 -31.794  0.00  0.00    +0.000 NA
ATOM     16  C   UNL     1     -43.089 -11.569 -31.252  0.00  0.00    +0.000 A 
ATOM     17  N   UNL     1     -43.813 -12.164 -30.257  0.00  0.00    +0.000 NA
ATOM     18  C   UNL     1     -44.937 -11.542 -29.827  0.00  0.00    +0.000 A 
ATOM     19  N   UNL     1     -45.800 -11.996 -28.910  0.00  0.00    +0.000 N 
ATOM     20  C   UNL     1     -46.762 -11.034 -28.911  0.00  0.00    +0.000 A 
ATOM     21  N   UNL     1     -46.527 -10.019 -29.788  0.00  0.00    +0.000 NA
ATOM     22  C   UNL     1     -45.359 -10.368 -30.344  0.00  0.00    +0.000 A 
ATOM     23  H   UNL     1     -45.750 -12.818 -28.371  0.00  0.00    +0.000 HD
ENDROOT
BRANCH   7  24
ATOM     24  C   UNL     1     -45.342  -3.932 -32.425  0.00  0.00    +0.000 A 
ATOM     25  C   UNL     1     -44.037  -3.971 -31.888  0.00  0.00    +0.000 A 
ATOM     26  F   UNL     1     -43.609  -5.027 -31.153  0.00  0.00    +0.000 F 
ATOM     27  C   UNL     1     -43.156  -2.909 -32.109  0.00  0.00    +0.000 A 
ATOM     28  C   UNL     1     -43.559  -1.804 -32.860  0.00  0.00    +0.000 A 
ATOM     29  C   UNL     1     -44.848  -1.758 -33.393  0.00  0.00    +0.000 A 
ATOM     30  C   UNL     1     -45.737  -2.814 -33.179  0.00  0.00    +0.000 A 
ATOM     31  F   UNL     1     -46.983  -2.745 -33.710  0.00  0.00    +0.000 F 
ENDBRANCH   7  24
TORSDOF 1
ENDMDL
