MODEL 1
REMARK VINA RESULT:      -6.2      0.000      0.000
REMARK  Name = ZINC000021523792 ZINC21523792
REMARK  6 active torsions:
REMARK  status: ('A' for Active; 'I' for Inactive)
REMARK    1  A    between atoms: C_1  and  C_24
REMARK    2  A    between atoms: C_22  and  O_28
REMARK    3  A    between atoms: C_27  and  O_31
REMARK    4  A    between atoms: O_28  and  C_30
REMARK    5  A    between atoms: O_31  and  C_32
REMARK    6  A    between atoms: C_32  and  C_33
REMARK                            x       y       z     vdW  Elec       q    Type
REMARK                         _______ _______ _______ _____ _____    ______ ____
ROOT
ATOM      1  C   UNL     1     -44.794 -15.979 -26.378  0.00  0.00    +0.000 C 
ATOM      2  C   UNL     1     -45.189 -15.574 -24.966  0.00  0.00    +0.000 A 
ATOM      3  C   UNL     1     -45.749 -14.356 -24.573  0.00  0.00    +0.000 A 
ATOM      4  N   UNL     1     -46.031 -14.368 -23.260  0.00  0.00    +0.000 NA
ATOM      5  N   UNL     1     -45.696 -15.554 -22.783  0.00  0.00    +0.000 N 
ATOM      6  C   UNL     1     -45.214 -16.327 -23.784  0.00  0.00    +0.000 A 
ATOM      7  N   UNL     1     -44.881 -17.713 -23.585  0.00  0.00    +0.000 N 
ATOM      8  C   UNL     1     -44.664 -18.752 -24.542  0.00  0.00    +0.000 C 
ATOM      9  O   UNL     1     -44.388 -19.910 -24.135  0.00  0.00    +0.000 OA
ATOM     10  C   UNL     1     -44.756 -18.514 -26.000  0.00  0.00    +0.000 C 
ATOM     11  S   UNL     1     -43.524 -17.276 -26.439  0.00  0.00    +0.000 S 
ATOM     12  C   UNL     1     -46.082 -13.192 -25.443  0.00  0.00    +0.000 C 
ATOM     13  H   UNL     1     -44.787 -17.987 -22.644  0.00  0.00    +0.000 HD
ATOM     14  C   UNL     1     -45.881 -15.915 -21.404  0.00  0.00    +0.000 A 
ATOM     15  N   UNL     1     -46.596 -15.098 -20.583  0.00  0.00    +0.000 NA
ATOM     16  C   UNL     1     -46.784 -15.408 -19.273  0.00  0.00    +0.000 A 
ATOM     17  C   UNL     1     -46.238 -16.579 -18.750  0.00  0.00    +0.000 A 
ATOM     18  C   UNL     1     -45.508 -17.405 -19.601  0.00  0.00    +0.000 A 
ATOM     19  N   UNL     1     -45.342 -17.061 -20.904  0.00  0.00    +0.000 NA
ATOM     20  C   UNL     1     -44.909 -18.662 -19.083  0.00  0.00    +0.000 C 
ATOM     21  C   UNL     1     -47.568 -14.497 -18.399  0.00  0.00    +0.000 C 
ENDROOT
BRANCH   1  24
ATOM     22  C   UNL     1     -44.804 -13.280 -29.051  0.00  0.00    +0.000 A 
ATOM     23  C   UNL     1     -45.189 -14.347 -28.229  0.00  0.00    +0.000 A 
ATOM     24  C   UNL     1     -44.340 -14.832 -27.231  0.00  0.00    +0.000 A 
ATOM     25  C   UNL     1     -43.079 -14.252 -27.056  0.00  0.00    +0.000 A 
ATOM     26  C   UNL     1     -42.680 -13.190 -27.865  0.00  0.00    +0.000 A 
ATOM     27  C   UNL     1     -43.530 -12.688 -28.865  0.00  0.00    +0.000 A 
BRANCH  22  28
ATOM     28  O   UNL     1     -45.727 -12.858 -30.020  0.00  0.00    +0.000 OA
BRANCH  28  30
ATOM     29  C   UNL     1     -46.692 -10.668 -29.892  0.00  0.00    +0.000 C 
ATOM     30  C   UNL     1     -46.930 -12.155 -29.744  0.00  0.00    +0.000 C 
ENDBRANCH  28  30
ENDBRANCH  22  28
BRANCH  27  31
ATOM     31  O   UNL     1     -43.116 -11.618 -29.670  0.00  0.00    +0.000 OA
BRANCH  31  32
ATOM     32  C   UNL     1     -42.077 -11.718 -30.639  0.00  0.00    +0.000 C 
BRANCH  32  33
ATOM     33  C   UNL     1     -42.637 -11.565 -32.012  0.00  0.00    +0.000 C 
ATOM     34  O   UNL     1     -41.879 -11.275 -32.973  0.00  0.00    +0.000 OA
ATOM     35  N   UNL     1     -44.034 -11.722 -32.232  0.00  0.00    +0.000 N 
ATOM     36  H   UNL     1     -44.628 -11.948 -31.481  0.00  0.00    +0.000 HD
ATOM     37  H   UNL     1     -44.405 -11.605 -33.136  0.00  0.00    +0.000 HD
ENDBRANCH  32  33
ENDBRANCH  31  32
ENDBRANCH  27  31
ENDBRANCH   1  24
TORSDOF 6
ENDMDL
MODEL 2
REMARK VINA RESULT:      -6.1      7.352      9.707
REMARK  Name = ZINC000021523792 ZINC21523792
REMARK  6 active torsions:
REMARK  status: ('A' for Active; 'I' for Inactive)
REMARK    1  A    between atoms: C_1  and  C_24
REMARK    2  A    between atoms: C_22  and  O_28
REMARK    3  A    between atoms: C_27  and  O_31
REMARK    4  A    between atoms: O_28  and  C_30
REMARK    5  A    between atoms: O_31  and  C_32
REMARK    6  A    between atoms: C_32  and  C_33
REMARK                            x       y       z     vdW  Elec       q    Type
REMARK                         _______ _______ _______ _____ _____    ______ ____
ROOT
ATOM      1  C   UNL     1     -46.810  -7.067 -28.419  0.00  0.00    +0.000 C 
ATOM      2  C   UNL     1     -46.695  -6.360 -27.077  0.00  0.00    +0.000 A 
ATOM      3  C   UNL     1     -46.882  -4.998 -26.833  0.00  0.00    +0.000 A 
ATOM      4  N   UNL     1     -46.765  -4.733 -25.520  0.00  0.00    +0.000 NA
ATOM      5  N   UNL     1     -46.530  -5.873 -24.895  0.00  0.00    +0.000 N 
ATOM      6  C   UNL     1     -46.512  -6.888 -25.791  0.00  0.00    +0.000 A 
ATOM      7  N   UNL     1     -46.396  -8.263 -25.384  0.00  0.00    +0.000 N 
ATOM      8  C   UNL     1     -46.664  -9.463 -26.114  0.00  0.00    +0.000 C 
ATOM      9  O   UNL     1     -46.499 -10.574 -25.546  0.00  0.00    +0.000 OA
ATOM     10  C   UNL     1     -47.131  -9.445 -27.518  0.00  0.00    +0.000 C 
ATOM     11  S   UNL     1     -45.875  -8.621 -28.511  0.00  0.00    +0.000 S 
ATOM     12  C   UNL     1     -47.234  -3.941 -27.824  0.00  0.00    +0.000 C 
ATOM     13  H   UNL     1     -46.084  -8.399 -24.460  0.00  0.00    +0.000 HD
ATOM     14  C   UNL     1     -46.369  -5.956 -23.470  0.00  0.00    +0.000 A 
ATOM     15  N   UNL     1     -46.649  -4.873 -22.695  0.00  0.00    +0.000 NA
ATOM     16  C   UNL     1     -46.501  -4.917 -21.345  0.00  0.00    +0.000 A 
ATOM     17  C   UNL     1     -46.051  -6.086 -20.732  0.00  0.00    +0.000 A 
ATOM     18  C   UNL     1     -45.767  -7.186 -21.537  0.00  0.00    +0.000 A 
ATOM     19  N   UNL     1     -45.928  -7.103 -22.883  0.00  0.00    +0.000 NA
ATOM     20  C   UNL     1     -45.284  -8.450 -20.923  0.00  0.00    +0.000 C 
ATOM     21  C   UNL     1     -46.814  -3.719 -20.523  0.00  0.00    +0.000 C 
ENDROOT
BRANCH   1  24
ATOM     22  C   UNL     1     -44.688  -5.002 -30.798  0.00  0.00    +0.000 A 
ATOM     23  C   UNL     1     -45.093  -5.804 -29.723  0.00  0.00    +0.000 A 
ATOM     24  C   UNL     1     -46.422  -6.211 -29.588  0.00  0.00    +0.000 A 
ATOM     25  C   UNL     1     -47.370  -5.802 -30.534  0.00  0.00    +0.000 A 
ATOM     26  C   UNL     1     -46.983  -5.004 -31.609  0.00  0.00    +0.000 A 
ATOM     27  C   UNL     1     -45.647  -4.597 -31.760  0.00  0.00    +0.000 A 
BRANCH  22  28
ATOM     28  O   UNL     1     -43.331  -4.650 -30.853  0.00  0.00    +0.000 OA
BRANCH  28  30
ATOM     29  C   UNL     1     -41.574  -6.225 -30.426  0.00  0.00    +0.000 C 
ATOM     30  C   UNL     1     -42.315  -5.425 -31.475  0.00  0.00    +0.000 C 
ENDBRANCH  28  30
ENDBRANCH  22  28
BRANCH  27  31
ATOM     31  O   UNL     1     -45.272  -3.795 -32.847  0.00  0.00    +0.000 OA
BRANCH  31  32
ATOM     32  C   UNL     1     -45.545  -2.400 -32.927  0.00  0.00    +0.000 C 
BRANCH  32  33
ATOM     33  C   UNL     1     -44.870  -1.679 -31.810  0.00  0.00    +0.000 C 
ATOM     34  O   UNL     1     -45.549  -1.223 -30.855  0.00  0.00    +0.000 OA
ATOM     35  N   UNL     1     -43.461  -1.483 -31.839  0.00  0.00    +0.000 N 
ATOM     36  H   UNL     1     -42.930  -1.839 -32.587  0.00  0.00    +0.000 HD
ATOM     37  H   UNL     1     -43.019  -0.992 -31.109  0.00  0.00    +0.000 HD
ENDBRANCH  32  33
ENDBRANCH  31  32
ENDBRANCH  27  31
ENDBRANCH   1  24
TORSDOF 6
ENDMDL
MODEL 3
REMARK VINA RESULT:      -6.1      4.310      6.252
REMARK  Name = ZINC000021523792 ZINC21523792
REMARK  6 active torsions:
REMARK  status: ('A' for Active; 'I' for Inactive)
REMARK    1  A    between atoms: C_1  and  C_24
REMARK    2  A    between atoms: C_22  and  O_28
REMARK    3  A    between atoms: C_27  and  O_31
REMARK    4  A    between atoms: O_28  and  C_30
REMARK    5  A    between atoms: O_31  and  C_32
REMARK    6  A    between atoms: C_32  and  C_33
REMARK                            x       y       z     vdW  Elec       q    Type
REMARK                         _______ _______ _______ _____ _____    ______ ____
ROOT
ATOM      1  C   UNL     1     -46.077 -10.828 -28.993  0.00  0.00    +0.000 C 
ATOM      2  C   UNL     1     -46.104 -11.241 -27.529  0.00  0.00    +0.000 A 
ATOM      3  C   UNL     1     -46.785 -10.597 -26.494  0.00  0.00    +0.000 A 
ATOM      4  N   UNL     1     -46.640 -11.273 -25.342  0.00  0.00    +0.000 NA
ATOM      5  N   UNL     1     -45.907 -12.345 -25.589  0.00  0.00    +0.000 N 
ATOM      6  C   UNL     1     -45.589 -12.384 -26.904  0.00  0.00    +0.000 A 
ATOM      7  N   UNL     1     -44.896 -13.502 -27.488  0.00  0.00    +0.000 N 
ATOM      8  C   UNL     1     -44.747 -13.876 -28.859  0.00  0.00    +0.000 C 
ATOM      9  O   UNL     1     -44.097 -14.915 -29.143  0.00  0.00    +0.000 OA
ATOM     10  C   UNL     1     -45.334 -13.081 -29.962  0.00  0.00    +0.000 C 
ATOM     11  S   UNL     1     -44.621 -11.430 -29.897  0.00  0.00    +0.000 S 
ATOM     12  C   UNL     1     -47.631  -9.373 -26.591  0.00  0.00    +0.000 C 
ATOM     13  H   UNL     1     -44.457 -14.102 -26.843  0.00  0.00    +0.000 HD
ATOM     14  C   UNL     1     -45.571 -13.305 -24.573  0.00  0.00    +0.000 A 
ATOM     15  N   UNL     1     -46.170 -13.233 -23.353  0.00  0.00    +0.000 NA
ATOM     16  C   UNL     1     -45.870 -14.122 -22.370  0.00  0.00    +0.000 A 
ATOM     17  C   UNL     1     -44.932 -15.127 -22.602  0.00  0.00    +0.000 A 
ATOM     18  C   UNL     1     -44.326 -15.187 -23.855  0.00  0.00    +0.000 A 
ATOM     19  N   UNL     1     -44.653 -14.281 -24.812  0.00  0.00    +0.000 NA
ATOM     20  C   UNL     1     -43.321 -16.242 -24.144  0.00  0.00    +0.000 C 
ATOM     21  C   UNL     1     -46.538 -14.020 -21.046  0.00  0.00    +0.000 C 
ENDROOT
BRANCH   1  24
ATOM     22  C   UNL     1     -45.231  -7.126 -28.918  0.00  0.00    +0.000 A 
ATOM     23  C   UNL     1     -45.167  -8.514 -28.743  0.00  0.00    +0.000 A 
ATOM     24  C   UNL     1     -46.188  -9.347 -29.206  0.00  0.00    +0.000 A 
ATOM     25  C   UNL     1     -47.300  -8.788 -29.845  0.00  0.00    +0.000 A 
ATOM     26  C   UNL     1     -47.380  -7.408 -30.026  0.00  0.00    +0.000 A 
ATOM     27  C   UNL     1     -46.354  -6.562 -29.574  0.00  0.00    +0.000 A 
BRANCH  22  28
ATOM     28  O   UNL     1     -44.155  -6.372 -28.426  0.00  0.00    +0.000 OA
BRANCH  28  30
ATOM     29  C   UNL     1     -42.099  -6.524 -27.203  0.00  0.00    +0.000 C 
ATOM     30  C   UNL     1     -42.788  -6.743 -28.533  0.00  0.00    +0.000 C 
ENDBRANCH  28  30
ENDBRANCH  22  28
BRANCH  27  31
ATOM     31  O   UNL     1     -46.448  -5.176 -29.765  0.00  0.00    +0.000 OA
BRANCH  31  32
ATOM     32  C   UNL     1     -47.298  -4.571 -30.733  0.00  0.00    +0.000 C 
BRANCH  32  33
ATOM     33  C   UNL     1     -46.628  -3.384 -31.337  0.00  0.00    +0.000 C 
ATOM     34  O   UNL     1     -45.861  -2.672 -30.640  0.00  0.00    +0.000 OA
ATOM     35  N   UNL     1     -46.875  -3.043 -32.696  0.00  0.00    +0.000 N 
ATOM     36  H   UNL     1     -47.475  -3.600 -33.242  0.00  0.00    +0.000 HD
ATOM     37  H   UNL     1     -46.445  -2.250 -33.089  0.00  0.00    +0.000 HD
ENDBRANCH  32  33
ENDBRANCH  31  32
ENDBRANCH  27  31
ENDBRANCH   1  24
TORSDOF 6
ENDMDL
