MODEL 1
REMARK VINA RESULT:      -7.9      0.000      0.000
REMARK  Name = ZINC000096117524
REMARK  4 active torsions:
REMARK  status: ('A' for Active; 'I' for Inactive)
REMARK    1  A    between atoms: C_4  and  C_30
REMARK    2  A    between atoms: C_8  and  O_9
REMARK    3  A    between atoms: C_10  and  O_11
REMARK    4  A    between atoms: C_14  and  C_21
REMARK                            x       y       z     vdW  Elec       q    Type
REMARK                         _______ _______ _______ _____ _____    ______ ____
ROOT
ATOM      1  O   UNL     1     -47.006  -3.865 -31.451  0.00  0.00    +0.000 OA
ATOM      2  C   UNL     1     -47.008  -4.576 -30.410  0.00  0.00    +0.000 A 
ATOM      3  C   UNL     1     -47.074  -3.945 -29.175  0.00  0.00    +0.000 A 
ATOM      4  C   UNL     1     -47.084  -4.714 -28.009  0.00  0.00    +0.000 A 
ATOM      5  O   UNL     1     -47.015  -6.042 -28.093  0.00  0.00    +0.000 OA
ATOM      6  C   UNL     1     -46.936  -6.703 -29.248  0.00  0.00    +0.000 A 
ATOM      7  C   UNL     1     -46.951  -5.983 -30.473  0.00  0.00    +0.000 A 
ATOM      8  C   UNL     1     -46.928  -6.688 -31.694  0.00  0.00    +0.000 A 
ATOM      9  C   UNL     1     -46.921  -8.083 -31.695  0.00  0.00    +0.000 A 
ATOM     10  C   UNL     1     -46.899  -8.797 -30.496  0.00  0.00    +0.000 A 
ATOM     11  C   UNL     1     -46.843  -8.118 -29.255  0.00  0.00    +0.000 A 
ATOM     12  C   UNL     1     -46.830  -8.947 -27.965  0.00  0.00    +0.000 C 
ATOM     13  C   UNL     1     -46.269 -10.359 -28.166  0.00  0.00    +0.000 C 
ATOM     14  C   UNL     1     -46.806 -10.975 -29.407  0.00  0.00    +0.000 C 
ATOM     15  O   UNL     1     -47.091 -12.199 -29.437  0.00  0.00    +0.000 OA
ATOM     16  O   UNL     1     -46.963 -10.193 -30.548  0.00  0.00    +0.000 OA
ENDROOT
BRANCH  12  17
ATOM     17  C   UNL     1     -46.085  -8.324 -26.817  0.00  0.00    +0.000 A 
ATOM     18  C   UNL     1     -46.711  -8.280 -25.566  0.00  0.00    +0.000 A 
ATOM     19  C   UNL     1     -46.040  -7.756 -24.458  0.00  0.00    +0.000 A 
ATOM     20  C   UNL     1     -44.739  -7.268 -24.593  0.00  0.00    +0.000 A 
ATOM     21  F   UNL     1     -44.098  -6.754 -23.516  0.00  0.00    +0.000 F 
ATOM     22  C   UNL     1     -44.100  -7.314 -25.838  0.00  0.00    +0.000 A 
ATOM     23  F   UNL     1     -42.833  -6.847 -25.967  0.00  0.00    +0.000 F 
ATOM     24  C   UNL     1     -44.764  -7.851 -26.948  0.00  0.00    +0.000 A 
ATOM     25  F   UNL     1     -44.125  -7.910 -28.144  0.00  0.00    +0.000 F 
ENDBRANCH  12  17
BRANCH   4  26
ATOM     26  C   UNL     1     -47.170  -4.065 -26.686  0.00  0.00    +0.000 A 
ATOM     27  C   UNL     1     -47.261  -2.669 -26.596  0.00  0.00    +0.000 A 
ATOM     28  C   UNL     1     -47.344  -2.041 -25.350  0.00  0.00    +0.000 A 
ATOM     29  C   UNL     1     -47.335  -2.804 -24.180  0.00  0.00    +0.000 A 
ATOM     30  C   UNL     1     -47.242  -4.196 -24.257  0.00  0.00    +0.000 A 
ATOM     31  C   UNL     1     -47.159  -4.823 -25.503  0.00  0.00    +0.000 A 
ENDBRANCH   4  26
BRANCH   8  32
ATOM     32  O   UNL     1     -46.931  -6.018 -32.915  0.00  0.00    +0.000 OA
ATOM     33  H   UNL     1     -47.738  -5.706 -33.275  0.00  0.00    +0.000 HD
ENDBRANCH   8  32
BRANCH   9  34
ATOM     34  O   UNL     1     -46.942  -8.771 -32.905  0.00  0.00    +0.000 OA
ATOM     35  H   UNL     1     -46.443  -8.455 -33.632  0.00  0.00    +0.000 HD
ENDBRANCH   9  34
TORSDOF 4
ENDMDL
MODEL 2
REMARK VINA RESULT:      -7.9      1.145      1.471
REMARK  Name = ZINC000096117524
REMARK  4 active torsions:
REMARK  status: ('A' for Active; 'I' for Inactive)
REMARK    1  A    between atoms: C_4  and  C_30
REMARK    2  A    between atoms: C_8  and  O_9
REMARK    3  A    between atoms: C_10  and  O_11
REMARK    4  A    between atoms: C_14  and  C_21
REMARK                            x       y       z     vdW  Elec       q    Type
REMARK                         _______ _______ _______ _____ _____    ______ ____
ROOT
ATOM      1  O   UNL     1     -46.500  -5.055 -30.927  0.00  0.00    +0.000 OA
ATOM      2  C   UNL     1     -46.630  -5.508 -29.758  0.00  0.00    +0.000 A 
ATOM      3  C   UNL     1     -46.773  -4.609 -28.709  0.00  0.00    +0.000 A 
ATOM      4  C   UNL     1     -46.927  -5.091 -27.407  0.00  0.00    +0.000 A 
ATOM      5  O   UNL     1     -46.919  -6.403 -27.184  0.00  0.00    +0.000 OA
ATOM      6  C   UNL     1     -46.771  -7.314 -28.146  0.00  0.00    +0.000 A 
ATOM      7  C   UNL     1     -46.640  -6.893 -29.497  0.00  0.00    +0.000 A 
ATOM      8  C   UNL     1     -46.544  -7.859 -30.520  0.00  0.00    +0.000 A 
ATOM      9  C   UNL     1     -46.609  -9.217 -30.206  0.00  0.00    +0.000 A 
ATOM     10  C   UNL     1     -46.730  -9.637 -28.881  0.00  0.00    +0.000 A 
ATOM     11  C   UNL     1     -46.751  -8.694 -27.826  0.00  0.00    +0.000 A 
ATOM     12  C   UNL     1     -46.895  -9.207 -26.387  0.00  0.00    +0.000 C 
ATOM     13  C   UNL     1     -46.391 -10.643 -26.209  0.00  0.00    +0.000 C 
ATOM     14  C   UNL     1     -46.846 -11.510 -27.327  0.00  0.00    +0.000 C 
ATOM     15  O   UNL     1     -47.189 -12.700 -27.107  0.00  0.00    +0.000 OA
ATOM     16  O   UNL     1     -46.860 -11.006 -28.624  0.00  0.00    +0.000 OA
ENDROOT
BRANCH  12  17
ATOM     17  C   UNL     1     -46.224  -8.360 -25.341  0.00  0.00    +0.000 A 
ATOM     18  C   UNL     1     -46.953  -8.021 -24.195  0.00  0.00    +0.000 A 
ATOM     19  C   UNL     1     -46.357  -7.278 -23.173  0.00  0.00    +0.000 A 
ATOM     20  C   UNL     1     -45.029  -6.864 -23.291  0.00  0.00    +0.000 A 
ATOM     21  F   UNL     1     -44.461  -6.136 -22.299  0.00  0.00    +0.000 F 
ATOM     22  C   UNL     1     -44.288  -7.203 -24.429  0.00  0.00    +0.000 A 
ATOM     23  F   UNL     1     -42.996  -6.807 -24.539  0.00  0.00    +0.000 F 
ATOM     24  C   UNL     1     -44.878  -7.959 -25.450  0.00  0.00    +0.000 A 
ATOM     25  F   UNL     1     -44.142  -8.300 -26.538  0.00  0.00    +0.000 F 
ENDBRANCH  12  17
BRANCH   4  26
ATOM     26  C   UNL     1     -47.097  -4.153 -26.279  0.00  0.00    +0.000 A 
ATOM     27  C   UNL     1     -47.259  -2.783 -26.526  0.00  0.00    +0.000 A 
ATOM     28  C   UNL     1     -47.423  -1.885 -25.468  0.00  0.00    +0.000 A 
ATOM     29  C   UNL     1     -47.424  -2.348 -24.150  0.00  0.00    +0.000 A 
ATOM     30  C   UNL     1     -47.260  -3.712 -23.892  0.00  0.00    +0.000 A 
ATOM     31  C   UNL     1     -47.097  -4.610 -24.950  0.00  0.00    +0.000 A 
ENDBRANCH   4  26
BRANCH   8  32
ATOM     32  O   UNL     1     -46.404  -7.487 -31.854  0.00  0.00    +0.000 OA
ATOM     33  H   UNL     1     -46.519  -8.123 -32.533  0.00  0.00    +0.000 HD
ENDBRANCH   8  32
BRANCH   9  34
ATOM     34  O   UNL     1     -46.557 -10.162 -31.226  0.00  0.00    +0.000 OA
ATOM     35  H   UNL     1     -46.876 -11.030 -31.077  0.00  0.00    +0.000 HD
ENDBRANCH   9  34
TORSDOF 4
ENDMDL
MODEL 3
REMARK VINA RESULT:      -7.7      8.802     11.303
REMARK  Name = ZINC000096117524
REMARK  4 active torsions:
REMARK  status: ('A' for Active; 'I' for Inactive)
REMARK    1  A    between atoms: C_4  and  C_30
REMARK    2  A    between atoms: C_8  and  O_9
REMARK    3  A    between atoms: C_10  and  O_11
REMARK    4  A    between atoms: C_14  and  C_21
REMARK                            x       y       z     vdW  Elec       q    Type
REMARK                         _______ _______ _______ _____ _____    ______ ____
ROOT
ATOM      1  O   UNL     1     -45.630 -12.010 -24.190  0.00  0.00    +0.000 OA
ATOM      2  C   UNL     1     -45.622 -13.145 -23.643  0.00  0.00    +0.000 A 
ATOM      3  C   UNL     1     -45.883 -13.230 -22.282  0.00  0.00    +0.000 A 
ATOM      4  C   UNL     1     -45.886 -14.479 -21.658  0.00  0.00    +0.000 A 
ATOM      5  O   UNL     1     -45.626 -15.574 -22.371  0.00  0.00    +0.000 OA
ATOM      6  C   UNL     1     -45.355 -15.555 -23.677  0.00  0.00    +0.000 A 
ATOM      7  C   UNL     1     -45.365 -14.320 -24.379  0.00  0.00    +0.000 A 
ATOM      8  C   UNL     1     -45.137 -14.310 -25.770  0.00  0.00    +0.000 A 
ATOM      9  C   UNL     1     -44.935 -15.509 -26.454  0.00  0.00    +0.000 A 
ATOM     10  C   UNL     1     -44.918 -16.726 -25.769  0.00  0.00    +0.000 A 
ATOM     11  C   UNL     1     -45.066 -16.761 -24.362  0.00  0.00    +0.000 A 
ATOM     12  C   UNL     1     -45.048 -18.124 -23.657  0.00  0.00    +0.000 C 
ATOM     13  C   UNL     1     -44.280 -19.194 -24.440  0.00  0.00    +0.000 C 
ATOM     14  C   UNL     1     -44.616 -19.140 -25.887  0.00  0.00    +0.000 C 
ATOM     15  O   UNL     1     -44.723 -20.202 -26.553  0.00  0.00    +0.000 OA
ATOM     16  O   UNL     1     -44.781 -17.905 -26.508  0.00  0.00    +0.000 OA
ENDROOT
BRANCH  12  17
ATOM     17  C   UNL     1     -44.500 -18.108 -22.257  0.00  0.00    +0.000 A 
ATOM     18  C   UNL     1     -43.180 -17.685 -22.066  0.00  0.00    +0.000 A 
ATOM     19  C   UNL     1     -42.643 -17.607 -20.779  0.00  0.00    +0.000 A 
ATOM     20  C   UNL     1     -43.420 -17.955 -19.673  0.00  0.00    +0.000 A 
ATOM     21  F   UNL     1     -42.888 -17.884 -18.428  0.00  0.00    +0.000 F 
ATOM     22  C   UNL     1     -44.744 -18.373 -19.851  0.00  0.00    +0.000 A 
ATOM     23  F   UNL     1     -45.501 -18.703 -18.775  0.00  0.00    +0.000 F 
ATOM     24  C   UNL     1     -45.291 -18.440 -21.139  0.00  0.00    +0.000 A 
ATOM     25  F   UNL     1     -46.583 -18.825 -21.296  0.00  0.00    +0.000 F 
ENDBRANCH  12  17
BRANCH   4  26
ATOM     26  C   UNL     1     -46.177 -14.593 -20.215  0.00  0.00    +0.000 A 
ATOM     27  C   UNL     1     -45.149 -14.910 -19.317  0.00  0.00    +0.000 A 
ATOM     28  C   UNL     1     -45.409 -15.021 -17.948  0.00  0.00    +0.000 A 
ATOM     29  C   UNL     1     -46.704 -14.817 -17.464  0.00  0.00    +0.000 A 
ATOM     30  C   UNL     1     -47.738 -14.504 -18.350  0.00  0.00    +0.000 A 
ATOM     31  C   UNL     1     -47.476 -14.393 -19.718  0.00  0.00    +0.000 A 
ENDBRANCH   4  26
BRANCH   8  32
ATOM     32  O   UNL     1     -45.128 -13.119 -26.492  0.00  0.00    +0.000 OA
ATOM     33  H   UNL     1     -44.382 -12.893 -27.013  0.00  0.00    +0.000 HD
ENDBRANCH   8  32
BRANCH   9  34
ATOM     34  O   UNL     1     -44.755 -15.493 -27.834  0.00  0.00    +0.000 OA
ATOM     35  H   UNL     1     -44.279 -14.794 -28.235  0.00  0.00    +0.000 HD
ENDBRANCH   9  34
TORSDOF 4
ENDMDL
