MODEL 1
REMARK VINA RESULT:      -8.3      0.000      0.000
REMARK  Name = ZINC000009405320 ZINC09405320 ChemDiv-E196-0337 MCULE-8548667416 MolPort-007-724-099 PubChem-22518545
REMARK  6 active torsions:
REMARK  status: ('A' for Active; 'I' for Inactive)
REMARK    1  A    between atoms: C_1  and  S_12
REMARK    2  A    between atoms: N_11  and  C_26
REMARK    3  A    between atoms: S_12  and  C_13
REMARK    4  A    between atoms: C_13  and  C_15
REMARK    5  A    between atoms: N_14  and  C_22
REMARK    6  A    between atoms: C_26  and  C_27
REMARK                            x       y       z     vdW  Elec       q    Type
REMARK                         _______ _______ _______ _____ _____    ______ ____
ROOT
ATOM      1  C   UNL     1     -47.051  -6.412 -31.850  0.00  0.00    +0.000 A 
ATOM      2  N   UNL     1     -46.955  -7.599 -31.193  0.00  0.00    +0.000 NA
ATOM      3  C   UNL     1     -46.486  -8.707 -31.814  0.00  0.00    +0.000 A 
ATOM      4  N   UNL     1     -46.391  -9.886 -31.145  0.00  0.00    +0.000 NA
ATOM      5  C   UNL     1     -45.917 -11.003 -31.760  0.00  0.00    +0.000 A 
ATOM      6  C   UNL     1     -45.523 -10.939 -33.099  0.00  0.00    +0.000 A 
ATOM      7  N   UNL     1     -45.617  -9.760 -33.771  0.00  0.00    +0.000 NA
ATOM      8  C   UNL     1     -46.090  -8.641 -33.156  0.00  0.00    +0.000 A 
ATOM      9  C   UNL     1     -46.199  -7.421 -33.828  0.00  0.00    +0.000 A 
ATOM     10  O   UNL     1     -45.856  -7.342 -35.041  0.00  0.00    +0.000 OA
ATOM     11  N   UNL     1     -46.680  -6.320 -33.170  0.00  0.00    +0.000 N 
ENDROOT
BRANCH   1  12
ATOM     12  S   UNL     1     -47.665  -4.989 -30.939  0.00  0.00    +0.000 S 
BRANCH  12  13
ATOM     13  C   UNL     1     -47.247  -5.749 -29.342  0.00  0.00    +0.000 C 
BRANCH  13  15
ATOM     14  N   UNL     1     -47.415  -5.011 -26.943  0.00  0.00    +0.000 N 
ATOM     15  C   UNL     1     -47.096  -4.698 -28.304  0.00  0.00    +0.000 C 
ATOM     16  O   UNL     1     -46.670  -3.558 -28.631  0.00  0.00    +0.000 OA
ATOM     17  H   UNL     1     -47.719  -5.929 -26.762  0.00  0.00    +0.000 HD
BRANCH  14  22
ATOM     18  C   UNL     1     -47.129  -1.349 -22.540  0.00  0.00    +0.000 C 
ATOM     19  C   UNL     1     -47.197  -2.332 -23.659  0.00  0.00    +0.000 A 
ATOM     20  C   UNL     1     -47.430  -1.861 -24.955  0.00  0.00    +0.000 A 
ATOM     21  C   UNL     1     -47.498  -2.754 -26.028  0.00  0.00    +0.000 A 
ATOM     22  C   UNL     1     -47.338  -4.127 -25.817  0.00  0.00    +0.000 A 
ATOM     23  C   UNL     1     -47.105  -4.599 -24.517  0.00  0.00    +0.000 A 
ATOM     24  C   UNL     1     -47.033  -3.711 -23.439  0.00  0.00    +0.000 A 
ATOM     25  C   UNL     1     -46.784  -4.260 -22.074  0.00  0.00    +0.000 C 
ENDBRANCH  14  22
ENDBRANCH  13  15
ENDBRANCH  12  13
ENDBRANCH   1  12
BRANCH  11  26
ATOM     26  C   UNL     1     -46.821  -5.057 -33.901  0.00  0.00    +0.000 C 
BRANCH  26  27
ATOM     27  C   UNL     1     -45.687  -4.119 -33.628  0.00  0.00    +0.000 A 
ATOM     28  C   UNL     1     -45.957  -2.736 -33.523  0.00  0.00    +0.000 A 
ATOM     29  C   UNL     1     -44.917  -1.816 -33.302  0.00  0.00    +0.000 A 
ATOM     30  C   UNL     1     -43.624  -2.322 -33.196  0.00  0.00    +0.000 A 
ATOM     31  O   UNL     1     -42.448  -1.633 -32.976  0.00  0.00    +0.000 OA
ATOM     32  C   UNL     1     -41.374  -2.583 -32.951  0.00  0.00    +0.000 C 
ATOM     33  O   UNL     1     -41.999  -3.856 -33.169  0.00  0.00    +0.000 OA
ATOM     34  C   UNL     1     -43.357  -3.647 -33.310  0.00  0.00    +0.000 A 
ATOM     35  C   UNL     1     -44.358  -4.587 -33.536  0.00  0.00    +0.000 A 
ENDBRANCH  26  27
ENDBRANCH  11  26
TORSDOF 6
ENDMDL
MODEL 2
REMARK VINA RESULT:      -7.8      3.041      7.078
REMARK  Name = ZINC000009405320 ZINC09405320 ChemDiv-E196-0337 MCULE-8548667416 MolPort-007-724-099 PubChem-22518545
REMARK  6 active torsions:
REMARK  status: ('A' for Active; 'I' for Inactive)
REMARK    1  A    between atoms: C_1  and  S_12
REMARK    2  A    between atoms: N_11  and  C_26
REMARK    3  A    between atoms: S_12  and  C_13
REMARK    4  A    between atoms: C_13  and  C_15
REMARK    5  A    between atoms: N_14  and  C_22
REMARK    6  A    between atoms: C_26  and  C_27
REMARK                            x       y       z     vdW  Elec       q    Type
REMARK                         _______ _______ _______ _____ _____    ______ ____
ROOT
ATOM      1  C   UNL     1     -46.786  -6.675 -29.865  0.00  0.00    +0.000 A 
ATOM      2  N   UNL     1     -46.619  -7.436 -28.750  0.00  0.00    +0.000 NA
ATOM      3  C   UNL     1     -46.639  -6.882 -27.514  0.00  0.00    +0.000 A 
ATOM      4  N   UNL     1     -46.475  -7.654 -26.409  0.00  0.00    +0.000 NA
ATOM      5  C   UNL     1     -46.496  -7.106 -25.163  0.00  0.00    +0.000 A 
ATOM      6  C   UNL     1     -46.688  -5.729 -25.019  0.00  0.00    +0.000 A 
ATOM      7  N   UNL     1     -46.852  -4.955 -26.124  0.00  0.00    +0.000 NA
ATOM      8  C   UNL     1     -46.832  -5.502 -27.371  0.00  0.00    +0.000 A 
ATOM      9  C   UNL     1     -46.995  -4.724 -28.520  0.00  0.00    +0.000 A 
ATOM     10  O   UNL     1     -47.162  -3.478 -28.413  0.00  0.00    +0.000 OA
ATOM     11  N   UNL     1     -46.967  -5.318 -29.755  0.00  0.00    +0.000 N 
ENDROOT
BRANCH   1  12
ATOM     12  S   UNL     1     -46.768  -7.500 -31.462  0.00  0.00    +0.000 S 
BRANCH  12  13
ATOM     13  C   UNL     1     -47.755  -8.888 -30.829  0.00  0.00    +0.000 C 
BRANCH  13  15
ATOM     14  N   UNL     1     -47.381 -10.972 -29.469  0.00  0.00    +0.000 N 
ATOM     15  C   UNL     1     -46.860  -9.974 -30.355  0.00  0.00    +0.000 C 
ATOM     16  O   UNL     1     -45.665 -10.013 -30.753  0.00  0.00    +0.000 OA
ATOM     17  H   UNL     1     -48.330 -10.887 -29.221  0.00  0.00    +0.000 HD
BRANCH  14  22
ATOM     18  C   UNL     1     -44.476 -15.449 -27.374  0.00  0.00    +0.000 C 
ATOM     19  C   UNL     1     -45.244 -14.275 -27.881  0.00  0.00    +0.000 A 
ATOM     20  C   UNL     1     -45.225 -14.001 -29.251  0.00  0.00    +0.000 A 
ATOM     21  C   UNL     1     -45.934 -12.910 -29.762  0.00  0.00    +0.000 A 
ATOM     22  C   UNL     1     -46.668 -12.081 -28.907  0.00  0.00    +0.000 A 
ATOM     23  C   UNL     1     -46.686 -12.356 -27.533  0.00  0.00    +0.000 A 
ATOM     24  C   UNL     1     -45.980 -13.447 -27.015  0.00  0.00    +0.000 A 
ATOM     25  C   UNL     1     -46.029 -13.700 -25.546  0.00  0.00    +0.000 C 
ENDBRANCH  14  22
ENDBRANCH  13  15
ENDBRANCH  12  13
ENDBRANCH   1  12
BRANCH  11  26
ATOM     26  C   UNL     1     -47.103  -4.481 -30.951  0.00  0.00    +0.000 C 
BRANCH  26  27
ATOM     27  C   UNL     1     -45.817  -3.810 -31.318  0.00  0.00    +0.000 A 
ATOM     28  C   UNL     1     -44.622  -4.563 -31.285  0.00  0.00    +0.000 A 
ATOM     29  C   UNL     1     -43.387  -3.964 -31.589  0.00  0.00    +0.000 A 
ATOM     30  C   UNL     1     -43.393  -2.612 -31.918  0.00  0.00    +0.000 A 
ATOM     31  O   UNL     1     -42.324  -1.806 -32.257  0.00  0.00    +0.000 OA
ATOM     32  C   UNL     1     -42.825  -0.485 -32.505  0.00  0.00    +0.000 C 
ATOM     33  O   UNL     1     -44.241  -0.577 -32.289  0.00  0.00    +0.000 OA
ATOM     34  C   UNL     1     -44.535  -1.880 -31.938  0.00  0.00    +0.000 A 
ATOM     35  C   UNL     1     -45.775  -2.435 -31.635  0.00  0.00    +0.000 A 
ENDBRANCH  26  27
ENDBRANCH  11  26
TORSDOF 6
ENDMDL
MODEL 3
REMARK VINA RESULT:      -7.7      2.531      6.235
REMARK  Name = ZINC000009405320 ZINC09405320 ChemDiv-E196-0337 MCULE-8548667416 MolPort-007-724-099 PubChem-22518545
REMARK  6 active torsions:
REMARK  status: ('A' for Active; 'I' for Inactive)
REMARK    1  A    between atoms: C_1  and  S_12
REMARK    2  A    between atoms: N_11  and  C_26
REMARK    3  A    between atoms: S_12  and  C_13
REMARK    4  A    between atoms: C_13  and  C_15
REMARK    5  A    between atoms: N_14  and  C_22
REMARK    6  A    between atoms: C_26  and  C_27
REMARK                            x       y       z     vdW  Elec       q    Type
REMARK                         _______ _______ _______ _____ _____    ______ ____
ROOT
ATOM      1  C   UNL     1     -44.892  -5.785 -31.531  0.00  0.00    +0.000 A 
ATOM      2  N   UNL     1     -45.062  -6.351 -30.306  0.00  0.00    +0.000 NA
ATOM      3  C   UNL     1     -45.765  -5.720 -29.335  0.00  0.00    +0.000 A 
ATOM      4  N   UNL     1     -45.930  -6.298 -28.116  0.00  0.00    +0.000 NA
ATOM      5  C   UNL     1     -46.637  -5.673 -27.136  0.00  0.00    +0.000 A 
ATOM      6  C   UNL     1     -47.199  -4.417 -27.385  0.00  0.00    +0.000 A 
ATOM      7  N   UNL     1     -47.034  -3.837 -28.603  0.00  0.00    +0.000 NA
ATOM      8  C   UNL     1     -46.328  -4.462 -29.585  0.00  0.00    +0.000 A 
ATOM      9  C   UNL     1     -46.143  -3.883 -30.843  0.00  0.00    +0.000 A 
ATOM     10  O   UNL     1     -46.635  -2.746 -31.086  0.00  0.00    +0.000 OA
ATOM     11  N   UNL     1     -45.425  -4.548 -31.802  0.00  0.00    +0.000 N 
ENDROOT
BRANCH   1  12
ATOM     12  S   UNL     1     -43.964  -6.705 -32.765  0.00  0.00    +0.000 S 
BRANCH  12  13
ATOM     13  C   UNL     1     -45.482  -7.402 -33.481  0.00  0.00    +0.000 C 
BRANCH  13  15
ATOM     14  N   UNL     1     -45.288  -9.166 -31.697  0.00  0.00    +0.000 N 
ATOM     15  C   UNL     1     -46.119  -8.333 -32.514  0.00  0.00    +0.000 C 
ATOM     16  O   UNL     1     -47.374  -8.360 -32.413  0.00  0.00    +0.000 OA
ATOM     17  H   UNL     1     -44.316  -9.072 -31.818  0.00  0.00    +0.000 HD
BRANCH  14  22
ATOM     18  C   UNL     1     -47.015 -13.111 -27.911  0.00  0.00    +0.000 C 
ATOM     19  C   UNL     1     -46.571 -12.056 -28.867  0.00  0.00    +0.000 A 
ATOM     20  C   UNL     1     -46.226 -12.430 -30.169  0.00  0.00    +0.000 A 
ATOM     21  C   UNL     1     -45.806 -11.469 -31.092  0.00  0.00    +0.000 A 
ATOM     22  C   UNL     1     -45.724 -10.123 -30.722  0.00  0.00    +0.000 A 
ATOM     23  C   UNL     1     -46.068  -9.748 -29.416  0.00  0.00    +0.000 A 
ATOM     24  C   UNL     1     -46.492 -10.704 -28.488  0.00  0.00    +0.000 A 
ATOM     25  C   UNL     1     -46.847 -10.257 -27.110  0.00  0.00    +0.000 C 
ENDBRANCH  14  22
ENDBRANCH  13  15
ENDBRANCH  12  13
ENDBRANCH   1  12
BRANCH  11  26
ATOM     26  C   UNL     1     -45.210  -3.909 -33.103  0.00  0.00    +0.000 C 
BRANCH  26  27
ATOM     27  C   UNL     1     -44.143  -2.860 -33.046  0.00  0.00    +0.000 A 
ATOM     28  C   UNL     1     -44.511  -1.505 -33.197  0.00  0.00    +0.000 A 
ATOM     29  C   UNL     1     -43.538  -0.491 -33.185  0.00  0.00    +0.000 A 
ATOM     30  C   UNL     1     -42.210  -0.877 -33.022  0.00  0.00    +0.000 A 
ATOM     31  O   UNL     1     -41.084  -0.079 -32.971  0.00  0.00    +0.000 OA
ATOM     32  C   UNL     1     -39.944  -0.932 -32.799  0.00  0.00    +0.000 C 
ATOM     33  O   UNL     1     -40.477  -2.263 -32.754  0.00  0.00    +0.000 OA
ATOM     34  C   UNL     1     -41.849  -2.178 -32.891  0.00  0.00    +0.000 A 
ATOM     35  C   UNL     1     -42.782  -3.210 -32.907  0.00  0.00    +0.000 A 
ENDBRANCH  26  27
ENDBRANCH  11  26
TORSDOF 6
ENDMDL
