MODEL 1
REMARK VINA RESULT:      -6.9      0.000      0.000
REMARK  Name = ZINC000014182987 MolPort-009-650-068
REMARK  2 active torsions:
REMARK  status: ('A' for Active; 'I' for Inactive)
REMARK    1  A    between atoms: C_2  and  C_5
REMARK    2  A    between atoms: C_20  and  C_22
REMARK                            x       y       z     vdW  Elec       q    Type
REMARK                         _______ _______ _______ _____ _____    ______ ____
ROOT
ATOM      1  O   UNL     1     -47.328  -2.740 -34.002  0.00  0.00    +0.000 OA
ATOM      2  C   UNL     1     -46.784  -3.509 -33.166  0.00  0.00    +0.000 C 
ATOM      3  N   UNL     1     -47.619  -4.208 -32.235  0.00  0.00    +0.000 N 
ATOM      4  H   UNL     1     -48.551  -4.378 -32.501  0.00  0.00    +0.000 HD
ATOM      5  C   UNL     1     -47.207  -4.678 -30.948  0.00  0.00    +0.000 A 
ATOM      6  N   UNL     1     -46.740  -3.881 -29.962  0.00  0.00    +0.000 NA
ATOM      7  N   UNL     1     -46.473  -4.543 -28.839  0.00  0.00    +0.000 NA
ATOM      8  C   UNL     1     -46.735  -5.867 -28.920  0.00  0.00    +0.000 A 
ATOM      9  S   UNL     1     -47.337  -6.276 -30.446  0.00  0.00    +0.000 S 
ENDROOT
BRANCH   2  10
ATOM     10  C   UNL     1     -45.317  -3.723 -33.218  0.00  0.00    +0.000 A 
ATOM     11  C   UNL     1     -44.836  -4.984 -33.593  0.00  0.00    +0.000 A 
ATOM     12  C   UNL     1     -43.464  -5.215 -33.679  0.00  0.00    +0.000 A 
ATOM     13  O   UNL     1     -43.038  -6.351 -34.012  0.00  0.00    +0.000 OA
ATOM     14  N   UNL     1     -42.584  -4.216 -33.406  0.00  0.00    +0.000 N 
ATOM     15  C   UNL     1     -43.004  -2.976 -33.045  0.00  0.00    +0.000 A 
ATOM     16  C   UNL     1     -42.063  -1.980 -32.768  0.00  0.00    +0.000 A 
ATOM     17  C   UNL     1     -42.483  -0.703 -32.385  0.00  0.00    +0.000 A 
ATOM     18  C   UNL     1     -43.846  -0.419 -32.275  0.00  0.00    +0.000 A 
ATOM     19  C   UNL     1     -44.794  -1.409 -32.549  0.00  0.00    +0.000 A 
ATOM     20  C   UNL     1     -44.389  -2.694 -32.942  0.00  0.00    +0.000 A 
ATOM     21  H   UNL     1     -41.618  -4.396 -33.472  0.00  0.00    +0.000 HD
ENDBRANCH   2  10
BRANCH   8  22
ATOM     22  C   UNL     1     -46.514  -6.807 -27.774  0.00  0.00    +0.000 C 
ATOM     23  C   UNL     1     -45.355  -6.381 -26.864  0.00  0.00    +0.000 C 
ATOM     24  C   UNL     1     -43.997  -6.741 -27.467  0.00  0.00    +0.000 C 
ATOM     25  C   UNL     1     -43.936  -8.229 -27.784  0.00  0.00    +0.000 C 
ATOM     26  C   UNL     1     -45.024  -8.592 -28.787  0.00  0.00    +0.000 C 
ATOM     27  C   UNL     1     -46.404  -8.272 -28.213  0.00  0.00    +0.000 C 
ENDBRANCH   8  22
TORSDOF 2
ENDMDL
MODEL 2
REMARK VINA RESULT:      -6.5      2.993      4.967
REMARK  Name = ZINC000014182987 MolPort-009-650-068
REMARK  2 active torsions:
REMARK  status: ('A' for Active; 'I' for Inactive)
REMARK    1  A    between atoms: C_2  and  C_5
REMARK    2  A    between atoms: C_20  and  C_22
REMARK                            x       y       z     vdW  Elec       q    Type
REMARK                         _______ _______ _______ _____ _____    ______ ____
ROOT
ATOM      1  O   UNL     1     -46.573  -3.100 -30.223  0.00  0.00    +0.000 OA
ATOM      2  C   UNL     1     -46.067  -3.733 -31.187  0.00  0.00    +0.000 C 
ATOM      3  N   UNL     1     -46.945  -4.338 -32.145  0.00  0.00    +0.000 N 
ATOM      4  H   UNL     1     -47.839  -3.943 -32.253  0.00  0.00    +0.000 HD
ATOM      5  C   UNL     1     -46.625  -5.473 -32.955  0.00  0.00    +0.000 A 
ATOM      6  N   UNL     1     -46.290  -6.687 -32.465  0.00  0.00    +0.000 NA
ATOM      7  N   UNL     1     -46.089  -7.596 -33.416  0.00  0.00    +0.000 NA
ATOM      8  C   UNL     1     -46.275  -7.116 -34.666  0.00  0.00    +0.000 A 
ATOM      9  S   UNL     1     -46.717  -5.484 -34.633  0.00  0.00    +0.000 S 
ENDROOT
BRANCH   2  10
ATOM     10  C   UNL     1     -44.593  -3.769 -31.343  0.00  0.00    +0.000 A 
ATOM     11  C   UNL     1     -43.894  -4.882 -30.857  0.00  0.00    +0.000 A 
ATOM     12  C   UNL     1     -42.510  -4.963 -31.008  0.00  0.00    +0.000 A 
ATOM     13  O   UNL     1     -41.888  -5.963 -30.565  0.00  0.00    +0.000 OA
ATOM     14  N   UNL     1     -41.831  -3.967 -31.635  0.00  0.00    +0.000 N 
ATOM     15  C   UNL     1     -42.466  -2.873 -32.127  0.00  0.00    +0.000 A 
ATOM     16  C   UNL     1     -41.726  -1.869 -32.760  0.00  0.00    +0.000 A 
ATOM     17  C   UNL     1     -42.368  -0.734 -33.262  0.00  0.00    +0.000 A 
ATOM     18  C   UNL     1     -43.752  -0.596 -33.130  0.00  0.00    +0.000 A 
ATOM     19  C   UNL     1     -44.499  -1.594 -32.498  0.00  0.00    +0.000 A 
ATOM     20  C   UNL     1     -43.871  -2.744 -31.996  0.00  0.00    +0.000 A 
ATOM     21  H   UNL     1     -40.854  -4.041 -31.734  0.00  0.00    +0.000 HD
ENDBRANCH   2  10
BRANCH   8  22
ATOM     22  C   UNL     1     -46.109  -7.963 -35.890  0.00  0.00    +0.000 C 
ATOM     23  C   UNL     1     -45.406  -9.296 -35.606  0.00  0.00    +0.000 C 
ATOM     24  C   UNL     1     -43.892  -9.125 -35.477  0.00  0.00    +0.000 C 
ATOM     25  C   UNL     1     -43.327  -8.454 -36.722  0.00  0.00    +0.000 C 
ATOM     26  C   UNL     1     -43.958  -7.079 -36.902  0.00  0.00    +0.000 C 
ATOM     27  C   UNL     1     -45.473  -7.206 -37.063  0.00  0.00    +0.000 C 
ENDBRANCH   8  22
TORSDOF 2
ENDMDL
MODEL 3
REMARK VINA RESULT:      -6.4      1.932      2.861
REMARK  Name = ZINC000014182987 MolPort-009-650-068
REMARK  2 active torsions:
REMARK  status: ('A' for Active; 'I' for Inactive)
REMARK    1  A    between atoms: C_2  and  C_5
REMARK    2  A    between atoms: C_20  and  C_22
REMARK                            x       y       z     vdW  Elec       q    Type
REMARK                         _______ _______ _______ _____ _____    ______ ____
ROOT
ATOM      1  O   UNL     1     -47.222  -4.817 -34.751  0.00  0.00    +0.000 OA
ATOM      2  C   UNL     1     -46.640  -5.140 -33.681  0.00  0.00    +0.000 C 
ATOM      3  N   UNL     1     -46.900  -6.436 -33.126  0.00  0.00    +0.000 N 
ATOM      4  H   UNL     1     -47.186  -7.145 -33.746  0.00  0.00    +0.000 HD
ATOM      5  C   UNL     1     -46.778  -6.780 -31.743  0.00  0.00    +0.000 A 
ATOM      6  N   UNL     1     -47.478  -6.191 -30.749  0.00  0.00    +0.000 NA
ATOM      7  N   UNL     1     -47.231  -6.721 -29.553  0.00  0.00    +0.000 NA
ATOM      8  C   UNL     1     -46.343  -7.740 -29.589  0.00  0.00    +0.000 A 
ATOM      9  S   UNL     1     -45.818  -8.034 -31.170  0.00  0.00    +0.000 S 
ENDROOT
BRANCH   2  10
ATOM     10  C   UNL     1     -45.657  -4.210 -33.075  0.00  0.00    +0.000 A 
ATOM     11  C   UNL     1     -46.124  -3.204 -32.219  0.00  0.00    +0.000 A 
ATOM     12  C   UNL     1     -45.227  -2.328 -31.610  0.00  0.00    +0.000 A 
ATOM     13  O   UNL     1     -45.654  -1.423 -30.847  0.00  0.00    +0.000 OA
ATOM     14  N   UNL     1     -43.893  -2.449 -31.837  0.00  0.00    +0.000 N 
ATOM     15  C   UNL     1     -43.393  -3.412 -32.653  0.00  0.00    +0.000 A 
ATOM     16  C   UNL     1     -42.013  -3.496 -32.861  0.00  0.00    +0.000 A 
ATOM     17  C   UNL     1     -41.489  -4.477 -33.707  0.00  0.00    +0.000 A 
ATOM     18  C   UNL     1     -42.343  -5.376 -34.350  0.00  0.00    +0.000 A 
ATOM     19  C   UNL     1     -43.724  -5.299 -34.148  0.00  0.00    +0.000 A 
ATOM     20  C   UNL     1     -44.266  -4.325 -33.296  0.00  0.00    +0.000 A 
ATOM     21  H   UNL     1     -43.273  -1.822 -31.397  0.00  0.00    +0.000 HD
ENDBRANCH   2  10
BRANCH   8  22
ATOM     22  C   UNL     1     -45.919  -8.487 -28.362  0.00  0.00    +0.000 C 
ATOM     23  C   UNL     1     -46.311  -7.776 -27.061  0.00  0.00    +0.000 C 
ATOM     24  C   UNL     1     -45.358  -6.626 -26.733  0.00  0.00    +0.000 C 
ATOM     25  C   UNL     1     -43.921  -7.128 -26.680  0.00  0.00    +0.000 C 
ATOM     26  C   UNL     1     -43.526  -7.716 -28.029  0.00  0.00    +0.000 C 
ATOM     27  C   UNL     1     -44.439  -8.889 -28.385  0.00  0.00    +0.000 C 
ENDBRANCH   8  22
TORSDOF 2
ENDMDL
