MODEL 1
REMARK VINA RESULT:      -7.9      0.000      0.000
REMARK  Name = ZINC000023126404 MCULE-3872663354
REMARK  6 active torsions:
REMARK  status: ('A' for Active; 'I' for Inactive)
REMARK    1  A    between atoms: C_4  and  S_25
REMARK    2  A    between atoms: C_10  and  C_16
REMARK    3  A    between atoms: N_18  and  C_20
REMARK    4  A    between atoms: S_25  and  C_26
REMARK    5  A    between atoms: C_26  and  C_27
REMARK    6  A    between atoms: N_29  and  C_31
REMARK                            x       y       z     vdW  Elec       q    Type
REMARK                         _______ _______ _______ _____ _____    ______ ____
ROOT
ATOM      1  C   UNL     1     -47.188  -3.798 -25.954  0.00  0.00    +0.000 A 
ATOM      2  N   UNL     1     -47.375  -2.823 -26.864  0.00  0.00    +0.000 NA
ATOM      3  N   UNL     1     -47.309  -3.412 -28.053  0.00  0.00    +0.000 NA
ATOM      4  C   UNL     1     -47.088  -4.728 -27.843  0.00  0.00    +0.000 A 
ATOM      5  N   UNL     1     -47.009  -4.997 -26.522  0.00  0.00    +0.000 N 
ATOM      6  C   UNL     1     -46.809  -6.128 -25.795  0.00  0.00    +0.000 A 
ATOM      7  C   UNL     1     -46.772  -6.009 -24.387  0.00  0.00    +0.000 A 
ATOM      8  C   UNL     1     -46.565  -7.151 -23.603  0.00  0.00    +0.000 A 
ATOM      9  C   UNL     1     -46.407  -8.401 -24.210  0.00  0.00    +0.000 A 
ATOM     10  C   UNL     1     -46.458  -8.528 -25.605  0.00  0.00    +0.000 A 
ATOM     11  C   UNL     1     -46.657  -7.386 -26.392  0.00  0.00    +0.000 A 
ATOM     12  C   UNL     1     -46.953  -4.731 -23.805  0.00  0.00    +0.000 A 
ATOM     13  O   UNL     1     -46.922  -4.603 -22.550  0.00  0.00    +0.000 OA
ATOM     14  N   UNL     1     -47.165  -3.634 -24.603  0.00  0.00    +0.000 N 
ATOM     15  C   UNL     1     -47.357  -2.311 -24.021  0.00  0.00    +0.000 C 
ENDROOT
BRANCH  10  16
ATOM     16  C   UNL     1     -46.319  -9.849 -26.239  0.00  0.00    +0.000 C 
ATOM     17  O   UNL     1     -46.653 -10.890 -25.609  0.00  0.00    +0.000 OA
ATOM     18  N   UNL     1     -45.821  -9.952 -27.578  0.00  0.00    +0.000 N 
ATOM     19  H   UNL     1     -45.593  -9.126 -28.063  0.00  0.00    +0.000 HD
BRANCH  18  20
ATOM     20  C   UNL     1     -45.639 -11.231 -28.247  0.00  0.00    +0.000 C 
ATOM     21  C   UNL     1     -44.282 -11.271 -28.934  0.00  0.00    +0.000 C 
ATOM     22  C   UNL     1     -44.554 -11.319 -30.422  0.00  0.00    +0.000 C 
ATOM     23  C   UNL     1     -45.950 -11.875 -30.557  0.00  0.00    +0.000 C 
ATOM     24  C   UNL     1     -46.687 -11.389 -29.331  0.00  0.00    +0.000 C 
ENDBRANCH  18  20
ENDBRANCH  10  16
BRANCH   4  25
ATOM     25  S   UNL     1     -46.863  -5.908 -29.172  0.00  0.00    +0.000 S 
BRANCH  25  26
ATOM     26  C   UNL     1     -47.713  -4.841 -30.379  0.00  0.00    +0.000 C 
BRANCH  26  27
ATOM     27  C   UNL     1     -46.762  -4.120 -31.283  0.00  0.00    +0.000 C 
ATOM     28  O   UNL     1     -46.842  -4.324 -32.522  0.00  0.00    +0.000 OA
ATOM     29  N   UNL     1     -45.794  -3.202 -30.751  0.00  0.00    +0.000 N 
ATOM     30  H   UNL     1     -45.834  -3.032 -29.782  0.00  0.00    +0.000 HD
BRANCH  29  31
ATOM     31  C   UNL     1     -44.777  -2.506 -31.482  0.00  0.00    +0.000 A 
ATOM     32  C   UNL     1     -44.945  -1.139 -31.733  0.00  0.00    +0.000 A 
ATOM     33  C   UNL     1     -43.964  -0.421 -32.422  0.00  0.00    +0.000 A 
ATOM     34  C   UNL     1     -42.804  -1.065 -32.861  0.00  0.00    +0.000 A 
ATOM     35  C   UNL     1     -42.627  -2.430 -32.613  0.00  0.00    +0.000 A 
ATOM     36  C   UNL     1     -43.610  -3.147 -31.926  0.00  0.00    +0.000 A 
ATOM     37  F   UNL     1     -41.851  -0.369 -33.524  0.00  0.00    +0.000 F 
ENDBRANCH  29  31
ENDBRANCH  26  27
ENDBRANCH  25  26
ENDBRANCH   4  25
TORSDOF 6
ENDMDL
MODEL 2
REMARK VINA RESULT:      -7.5      4.644      8.857
REMARK  Name = ZINC000023126404 MCULE-3872663354
REMARK  6 active torsions:
REMARK  status: ('A' for Active; 'I' for Inactive)
REMARK    1  A    between atoms: C_4  and  S_25
REMARK    2  A    between atoms: C_10  and  C_16
REMARK    3  A    between atoms: N_18  and  C_20
REMARK    4  A    between atoms: S_25  and  C_26
REMARK    5  A    between atoms: C_26  and  C_27
REMARK    6  A    between atoms: N_29  and  C_31
REMARK                            x       y       z     vdW  Elec       q    Type
REMARK                         _______ _______ _______ _____ _____    ______ ____
ROOT
ATOM      1  C   UNL     1     -45.438 -10.339 -29.547  0.00  0.00    +0.000 A 
ATOM      2  N   UNL     1     -45.473 -11.408 -30.365  0.00  0.00    +0.000 NA
ATOM      3  N   UNL     1     -45.857 -10.949 -31.553  0.00  0.00    +0.000 NA
ATOM      4  C   UNL     1     -46.043  -9.617 -31.433  0.00  0.00    +0.000 A 
ATOM      5  N   UNL     1     -45.782  -9.206 -30.173  0.00  0.00    +0.000 N 
ATOM      6  C   UNL     1     -45.811  -8.002 -29.544  0.00  0.00    +0.000 A 
ATOM      7  C   UNL     1     -45.480  -7.968 -28.170  0.00  0.00    +0.000 A 
ATOM      8  C   UNL     1     -45.500  -6.746 -27.485  0.00  0.00    +0.000 A 
ATOM      9  C   UNL     1     -45.834  -5.568 -28.159  0.00  0.00    +0.000 A 
ATOM     10  C   UNL     1     -46.148  -5.593 -29.525  0.00  0.00    +0.000 A 
ATOM     11  C   UNL     1     -46.137  -6.815 -30.211  0.00  0.00    +0.000 A 
ATOM     12  C   UNL     1     -45.128  -9.177 -27.523  0.00  0.00    +0.000 A 
ATOM     13  O   UNL     1     -44.831  -9.169 -26.296  0.00  0.00    +0.000 OA
ATOM     14  N   UNL     1     -45.108 -10.355 -28.227  0.00  0.00    +0.000 N 
ATOM     15  C   UNL     1     -44.745 -11.610 -27.578  0.00  0.00    +0.000 C 
ENDROOT
BRANCH  10  16
ATOM     16  C   UNL     1     -46.474  -4.347 -30.239  0.00  0.00    +0.000 C 
ATOM     17  O   UNL     1     -47.584  -3.779 -30.044  0.00  0.00    +0.000 OA
ATOM     18  N   UNL     1     -45.524  -3.768 -31.139  0.00  0.00    +0.000 N 
ATOM     19  H   UNL     1     -44.651  -4.210 -31.256  0.00  0.00    +0.000 HD
BRANCH  18  20
ATOM     20  C   UNL     1     -45.798  -2.552 -31.889  0.00  0.00    +0.000 C 
ATOM     21  C   UNL     1     -45.293  -2.695 -33.317  0.00  0.00    +0.000 C 
ATOM     22  C   UNL     1     -44.157  -1.705 -33.473  0.00  0.00    +0.000 C 
ATOM     23  C   UNL     1     -44.392  -0.656 -32.415  0.00  0.00    +0.000 C 
ATOM     24  C   UNL     1     -45.044  -1.393 -31.269  0.00  0.00    +0.000 C 
ENDBRANCH  18  20
ENDBRANCH  10  16
BRANCH   4  25
ATOM     25  S   UNL     1     -46.628  -8.585 -32.776  0.00  0.00    +0.000 S 
BRANCH  25  26
ATOM     26  C   UNL     1     -45.061  -8.741 -33.692  0.00  0.00    +0.000 C 
BRANCH  26  27
ATOM     27  C   UNL     1     -45.115  -9.797 -34.753  0.00  0.00    +0.000 C 
ATOM     28  O   UNL     1     -44.368  -9.675 -35.758  0.00  0.00    +0.000 OA
ATOM     29  N   UNL     1     -45.984 -10.932 -34.617  0.00  0.00    +0.000 N 
ATOM     30  H   UNL     1     -46.486 -11.004 -33.773  0.00  0.00    +0.000 HD
BRANCH  29  31
ATOM     31  C   UNL     1     -46.197 -11.971 -35.580  0.00  0.00    +0.000 A 
ATOM     32  C   UNL     1     -47.285 -11.867 -36.454  0.00  0.00    +0.000 A 
ATOM     33  C   UNL     1     -47.511 -12.848 -37.423  0.00  0.00    +0.000 A 
ATOM     34  C   UNL     1     -46.645 -13.940 -37.528  0.00  0.00    +0.000 A 
ATOM     35  C   UNL     1     -45.554 -14.051 -36.661  0.00  0.00    +0.000 A 
ATOM     36  C   UNL     1     -45.330 -13.070 -35.691  0.00  0.00    +0.000 A 
ATOM     37  F   UNL     1     -46.860 -14.889 -38.470  0.00  0.00    +0.000 F 
ENDBRANCH  29  31
ENDBRANCH  26  27
ENDBRANCH  25  26
ENDBRANCH   4  25
TORSDOF 6
ENDMDL
MODEL 3
REMARK VINA RESULT:      -7.5      4.040      7.354
REMARK  Name = ZINC000023126404 MCULE-3872663354
REMARK  6 active torsions:
REMARK  status: ('A' for Active; 'I' for Inactive)
REMARK    1  A    between atoms: C_4  and  S_25
REMARK    2  A    between atoms: C_10  and  C_16
REMARK    3  A    between atoms: N_18  and  C_20
REMARK    4  A    between atoms: S_25  and  C_26
REMARK    5  A    between atoms: C_26  and  C_27
REMARK    6  A    between atoms: N_29  and  C_31
REMARK                            x       y       z     vdW  Elec       q    Type
REMARK                         _______ _______ _______ _____ _____    ______ ____
ROOT
ATOM      1  C   UNL     1     -47.539  -4.876 -21.770  0.00  0.00    +0.000 A 
ATOM      2  N   UNL     1     -47.629  -5.870 -20.866  0.00  0.00    +0.000 NA
ATOM      3  N   UNL     1     -47.690  -6.999 -21.565  0.00  0.00    +0.000 NA
ATOM      4  C   UNL     1     -47.633  -6.670 -22.874  0.00  0.00    +0.000 A 
ATOM      5  N   UNL     1     -47.536  -5.332 -23.029  0.00  0.00    +0.000 N 
ATOM      6  C   UNL     1     -47.446  -4.507 -24.106  0.00  0.00    +0.000 A 
ATOM      7  C   UNL     1     -47.374  -3.116 -23.866  0.00  0.00    +0.000 A 
ATOM      8  C   UNL     1     -47.284  -2.233 -24.950  0.00  0.00    +0.000 A 
ATOM      9  C   UNL     1     -47.252  -2.725 -26.257  0.00  0.00    +0.000 A 
ATOM     10  C   UNL     1     -47.308  -4.105 -26.501  0.00  0.00    +0.000 A 
ATOM     11  C   UNL     1     -47.407  -4.991 -25.420  0.00  0.00    +0.000 A 
ATOM     12  C   UNL     1     -47.390  -2.653 -22.528  0.00  0.00    +0.000 A 
ATOM     13  O   UNL     1     -47.328  -1.414 -22.292  0.00  0.00    +0.000 OA
ATOM     14  N   UNL     1     -47.468  -3.547 -21.490  0.00  0.00    +0.000 N 
ATOM     15  C   UNL     1     -47.482  -3.088 -20.106  0.00  0.00    +0.000 C 
ENDROOT
BRANCH  10  16
ATOM     16  C   UNL     1     -47.248  -4.622 -27.878  0.00  0.00    +0.000 C 
ATOM     17  O   UNL     1     -47.482  -3.854 -28.851  0.00  0.00    +0.000 OA
ATOM     18  N   UNL     1     -46.906  -5.992 -28.115  0.00  0.00    +0.000 N 
ATOM     19  H   UNL     1     -46.698  -6.568 -27.344  0.00  0.00    +0.000 HD
BRANCH  18  20
ATOM     20  C   UNL     1     -46.855  -6.565 -29.451  0.00  0.00    +0.000 C 
ATOM     21  C   UNL     1     -47.270  -8.027 -29.408  0.00  0.00    +0.000 C 
ATOM     22  C   UNL     1     -46.042  -8.835 -29.769  0.00  0.00    +0.000 C 
ATOM     23  C   UNL     1     -45.158  -7.893 -30.548  0.00  0.00    +0.000 C 
ATOM     24  C   UNL     1     -45.429  -6.527 -29.964  0.00  0.00    +0.000 C 
ENDBRANCH  18  20
ENDBRANCH  10  16
BRANCH   4  25
ATOM     25  S   UNL     1     -47.749  -7.877 -24.193  0.00  0.00    +0.000 S 
BRANCH  25  26
ATOM     26  C   UNL     1     -46.129  -8.604 -23.786  0.00  0.00    +0.000 C 
BRANCH  26  27
ATOM     27  C   UNL     1     -45.845  -9.853 -24.560  0.00  0.00    +0.000 C 
ATOM     28  O   UNL     1     -45.274 -10.807 -23.971  0.00  0.00    +0.000 OA
ATOM     29  N   UNL     1     -46.233  -9.967 -25.939  0.00  0.00    +0.000 N 
ATOM     30  H   UNL     1     -46.741  -9.214 -26.317  0.00  0.00    +0.000 HD
BRANCH  29  31
ATOM     31  C   UNL     1     -45.959 -11.064 -26.820  0.00  0.00    +0.000 A 
ATOM     32  C   UNL     1     -47.022 -11.868 -27.244  0.00  0.00    +0.000 A 
ATOM     33  C   UNL     1     -46.798 -12.932 -28.123  0.00  0.00    +0.000 A 
ATOM     34  C   UNL     1     -45.507 -13.194 -28.587  0.00  0.00    +0.000 A 
ATOM     35  C   UNL     1     -44.439 -12.394 -28.171  0.00  0.00    +0.000 A 
ATOM     36  C   UNL     1     -44.664 -11.333 -27.291  0.00  0.00    +0.000 A 
ATOM     37  F   UNL     1     -45.290 -14.222 -29.443  0.00  0.00    +0.000 F 
ENDBRANCH  29  31
ENDBRANCH  26  27
ENDBRANCH  25  26
ENDBRANCH   4  25
TORSDOF 6
ENDMDL
