MODEL 1
REMARK VINA RESULT:      -7.5      0.000      0.000
REMARK  Name = ZINC000100138715
REMARK  4 active torsions:
REMARK  status: ('A' for Active; 'I' for Inactive)
REMARK    1  A    between atoms: C_1  and  C_13
REMARK    2  A    between atoms: C_6  and  C_21
REMARK    3  A    between atoms: C_16  and  O_17
REMARK    4  A    between atoms: C_21  and  C_22
REMARK                            x       y       z     vdW  Elec       q    Type
REMARK                         _______ _______ _______ _____ _____    ______ ____
ROOT
ATOM      1  C   UNL     1     -46.329  -3.291 -32.296  0.00  0.00    +0.000 C 
ATOM      2  C   UNL     1     -46.966  -3.293 -33.675  0.00  0.00    +0.000 C 
ATOM      3  C   UNL     1     -46.993  -4.743 -34.141  0.00  0.00    +0.000 C 
ATOM      4  C   UNL     1     -46.710  -5.601 -32.922  0.00  0.00    +0.000 C 
ATOM      5  N   UNL     1     -46.308  -4.680 -31.878  0.00  0.00    +0.000 N 
ATOM      6  C   UNL     1     -45.886  -5.106 -30.575  0.00  0.00    +0.000 C 
ATOM      7  O   UNL     1     -45.804  -4.272 -29.634  0.00  0.00    +0.000 OA
ENDROOT
BRANCH   1  13
ATOM      8  C   UNL     1     -40.037   0.433 -32.334  0.00  0.00    +0.000 C 
ATOM      9  C   UNL     1     -41.004  -0.696 -32.460  0.00  0.00    +0.000 A 
ATOM     10  N   UNL     1     -42.328  -0.456 -32.225  0.00  0.00    +0.000 NA
ATOM     11  C   UNL     1     -43.212  -1.475 -32.339  0.00  0.00    +0.000 A 
ATOM     12  C   UNL     1     -44.576  -1.430 -32.135  0.00  0.00    +0.000 A 
ATOM     13  C   UNL     1     -44.931  -2.759 -32.384  0.00  0.00    +0.000 A 
ATOM     14  N   UNL     1     -43.857  -3.519 -32.708  0.00  0.00    +0.000 NA
ATOM     15  N   UNL     1     -42.819  -2.707 -32.672  0.00  0.00    +0.000 N 
ATOM     16  C   UNL     1     -41.525  -3.021 -32.916  0.00  0.00    +0.000 A 
ATOM     17  C   UNL     1     -40.566  -1.999 -32.814  0.00  0.00    +0.000 A 
ATOM     18  C   UNL     1     -39.123  -2.293 -33.069  0.00  0.00    +0.000 C 
BRANCH  16  19
ATOM     19  O   UNL     1     -41.163  -4.321 -33.259  0.00  0.00    +0.000 OA
ATOM     20  H   UNL     1     -40.437  -4.732 -32.835  0.00  0.00    +0.000 HD
ENDBRANCH  16  19
ENDBRANCH   1  13
BRANCH   6  21
ATOM     21  C   UNL     1     -45.447  -6.514 -30.343  0.00  0.00    +0.000 C 
BRANCH  21  22
ATOM     22  C   UNL     1     -45.611  -6.853 -28.893  0.00  0.00    +0.000 A 
ATOM     23  N   UNL     1     -46.840  -7.214 -28.435  0.00  0.00    +0.000 NA
ATOM     24  N   UNL     1     -47.041  -7.578 -27.167  0.00  0.00    +0.000 N 
ATOM     25  C   UNL     1     -46.026  -7.612 -26.265  0.00  0.00    +0.000 A 
ATOM     26  O   UNL     1     -46.258  -7.979 -25.081  0.00  0.00    +0.000 OA
ATOM     27  C   UNL     1     -44.734  -7.250 -26.668  0.00  0.00    +0.000 A 
ATOM     28  C   UNL     1     -43.656  -7.276 -25.771  0.00  0.00    +0.000 A 
ATOM     29  C   UNL     1     -42.375  -6.920 -26.201  0.00  0.00    +0.000 A 
ATOM     30  C   UNL     1     -42.161  -6.538 -27.527  0.00  0.00    +0.000 A 
ATOM     31  C   UNL     1     -43.228  -6.511 -28.428  0.00  0.00    +0.000 A 
ATOM     32  C   UNL     1     -44.520  -6.865 -28.009  0.00  0.00    +0.000 A 
ATOM     33  H   UNL     1     -47.948  -7.827 -26.878  0.00  0.00    +0.000 HD
ENDBRANCH  21  22
ENDBRANCH   6  21
TORSDOF 4
ENDMDL
MODEL 2
REMARK VINA RESULT:      -7.3     13.182     15.707
REMARK  Name = ZINC000100138715
REMARK  4 active torsions:
REMARK  status: ('A' for Active; 'I' for Inactive)
REMARK    1  A    between atoms: C_1  and  C_13
REMARK    2  A    between atoms: C_6  and  C_21
REMARK    3  A    between atoms: C_16  and  O_17
REMARK    4  A    between atoms: C_21  and  C_22
REMARK                            x       y       z     vdW  Elec       q    Type
REMARK                         _______ _______ _______ _____ _____    ______ ____
ROOT
ATOM      1  C   UNL     1     -44.945 -16.842 -26.090  0.00  0.00    +0.000 C 
ATOM      2  C   UNL     1     -43.929 -16.067 -26.913  0.00  0.00    +0.000 C 
ATOM      3  C   UNL     1     -42.640 -16.880 -26.893  0.00  0.00    +0.000 C 
ATOM      4  C   UNL     1     -43.000 -18.261 -26.377  0.00  0.00    +0.000 C 
ATOM      5  N   UNL     1     -44.366 -18.160 -25.905  0.00  0.00    +0.000 N 
ATOM      6  C   UNL     1     -45.060 -19.244 -25.273  0.00  0.00    +0.000 C 
ATOM      7  O   UNL     1     -46.311 -19.193 -25.124  0.00  0.00    +0.000 OA
ENDROOT
BRANCH   1  13
ATOM      8  C   UNL     1     -47.074 -13.259 -20.083  0.00  0.00    +0.000 C 
ATOM      9  C   UNL     1     -46.235 -14.064 -21.018  0.00  0.00    +0.000 A 
ATOM     10  N   UNL     1     -46.719 -14.339 -22.264  0.00  0.00    +0.000 NA
ATOM     11  C   UNL     1     -45.962 -15.068 -23.119  0.00  0.00    +0.000 A 
ATOM     12  C   UNL     1     -46.281 -15.451 -24.406  0.00  0.00    +0.000 A 
ATOM     13  C   UNL     1     -45.140 -16.174 -24.764  0.00  0.00    +0.000 A 
ATOM     14  N   UNL     1     -44.226 -16.207 -23.764  0.00  0.00    +0.000 NA
ATOM     15  N   UNL     1     -44.757 -15.524 -22.770  0.00  0.00    +0.000 N 
ATOM     16  C   UNL     1     -44.212 -15.294 -21.552  0.00  0.00    +0.000 A 
ATOM     17  C   UNL     1     -44.956 -14.540 -20.627  0.00  0.00    +0.000 A 
ATOM     18  C   UNL     1     -44.403 -14.261 -19.267  0.00  0.00    +0.000 C 
BRANCH  16  19
ATOM     19  O   UNL     1     -42.952 -15.791 -21.233  0.00  0.00    +0.000 OA
ATOM     20  H   UNL     1     -42.736 -16.681 -21.431  0.00  0.00    +0.000 HD
ENDBRANCH  16  19
ENDBRANCH   1  13
BRANCH   6  21
ATOM     21  C   UNL     1     -44.305 -20.396 -24.698  0.00  0.00    +0.000 C 
BRANCH  21  22
ATOM     22  C   UNL     1     -43.743 -20.007 -23.365  0.00  0.00    +0.000 A 
ATOM     23  N   UNL     1     -44.429 -19.122 -22.592  0.00  0.00    +0.000 NA
ATOM     24  N   UNL     1     -44.008 -18.775 -21.374  0.00  0.00    +0.000 N 
ATOM     25  C   UNL     1     -42.872 -19.292 -20.838  0.00  0.00    +0.000 A 
ATOM     26  O   UNL     1     -42.521 -18.949 -19.677  0.00  0.00    +0.000 OA
ATOM     27  C   UNL     1     -42.115 -20.207 -21.580  0.00  0.00    +0.000 A 
ATOM     28  C   UNL     1     -40.938 -20.769 -21.062  0.00  0.00    +0.000 A 
ATOM     29  C   UNL     1     -40.206 -21.688 -21.819  0.00  0.00    +0.000 A 
ATOM     30  C   UNL     1     -40.644 -22.053 -23.094  0.00  0.00    +0.000 A 
ATOM     31  C   UNL     1     -41.815 -21.500 -23.617  0.00  0.00    +0.000 A 
ATOM     32  C   UNL     1     -42.559 -20.575 -22.868  0.00  0.00    +0.000 A 
ATOM     33  H   UNL     1     -44.534 -18.127 -20.853  0.00  0.00    +0.000 HD
ENDBRANCH  21  22
ENDBRANCH   6  21
TORSDOF 4
ENDMDL
MODEL 3
REMARK VINA RESULT:      -7.2      3.333      7.347
REMARK  Name = ZINC000100138715
REMARK  4 active torsions:
REMARK  status: ('A' for Active; 'I' for Inactive)
REMARK    1  A    between atoms: C_1  and  C_13
REMARK    2  A    between atoms: C_6  and  C_21
REMARK    3  A    between atoms: C_16  and  O_17
REMARK    4  A    between atoms: C_21  and  C_22
REMARK                            x       y       z     vdW  Elec       q    Type
REMARK                         _______ _______ _______ _____ _____    ______ ____
ROOT
ATOM      1  C   UNL     1     -47.490  -7.651 -30.130  0.00  0.00    +0.000 C 
ATOM      2  C   UNL     1     -47.400  -8.580 -28.931  0.00  0.00    +0.000 C 
ATOM      3  C   UNL     1     -46.466  -7.912 -27.930  0.00  0.00    +0.000 C 
ATOM      4  C   UNL     1     -46.302  -6.471 -28.377  0.00  0.00    +0.000 C 
ATOM      5  N   UNL     1     -46.915  -6.394 -29.688  0.00  0.00    +0.000 N 
ATOM      6  C   UNL     1     -46.909  -5.205 -30.489  0.00  0.00    +0.000 C 
ATOM      7  O   UNL     1     -47.672  -5.112 -31.487  0.00  0.00    +0.000 OA
ENDROOT
BRANCH   1  13
ATOM      8  C   UNL     1     -42.663 -10.565 -34.784  0.00  0.00    +0.000 C 
ATOM      9  C   UNL     1     -43.925  -9.969 -34.256  0.00  0.00    +0.000 A 
ATOM     10  N   UNL     1     -43.983  -9.614 -32.939  0.00  0.00    +0.000 NA
ATOM     11  C   UNL     1     -45.124  -9.071 -32.452  0.00  0.00    +0.000 A 
ATOM     12  C   UNL     1     -45.374  -8.661 -31.158  0.00  0.00    +0.000 A 
ATOM     13  C   UNL     1     -46.693  -8.211 -31.267  0.00  0.00    +0.000 A 
ATOM     14  N   UNL     1     -47.173  -8.348 -32.527  0.00  0.00    +0.000 NA
ATOM     15  N   UNL     1     -46.192  -8.878 -33.230  0.00  0.00    +0.000 N 
ATOM     16  C   UNL     1     -46.210  -9.207 -34.543  0.00  0.00    +0.000 A 
ATOM     17  C   UNL     1     -45.050  -9.773 -35.099  0.00  0.00    +0.000 A 
ATOM     18  C   UNL     1     -45.019 -10.158 -36.542  0.00  0.00    +0.000 C 
BRANCH  16  19
ATOM     19  O   UNL     1     -47.349  -8.987 -35.313  0.00  0.00    +0.000 OA
ATOM     20  H   UNL     1     -47.269  -8.840 -36.234  0.00  0.00    +0.000 HD
ENDBRANCH  16  19
ENDBRANCH   1  13
BRANCH   6  21
ATOM     21  C   UNL     1     -45.935  -4.107 -30.211  0.00  0.00    +0.000 C 
BRANCH  21  22
ATOM     22  C   UNL     1     -44.870  -4.109 -31.263  0.00  0.00    +0.000 A 
ATOM     23  N   UNL     1     -44.369  -5.298 -31.694  0.00  0.00    +0.000 NA
ATOM     24  N   UNL     1     -43.457  -5.369 -32.665  0.00  0.00    +0.000 N 
ATOM     25  C   UNL     1     -42.982  -4.256 -33.280  0.00  0.00    +0.000 A 
ATOM     26  O   UNL     1     -42.133  -4.370 -34.205  0.00  0.00    +0.000 OA
ATOM     27  C   UNL     1     -43.452  -2.996 -32.885  0.00  0.00    +0.000 A 
ATOM     28  C   UNL     1     -42.992  -1.821 -33.497  0.00  0.00    +0.000 A 
ATOM     29  C   UNL     1     -43.485  -0.578 -33.091  0.00  0.00    +0.000 A 
ATOM     30  C   UNL     1     -44.440  -0.500 -32.074  0.00  0.00    +0.000 A 
ATOM     31  C   UNL     1     -44.905  -1.666 -31.460  0.00  0.00    +0.000 A 
ATOM     32  C   UNL     1     -44.417  -2.920 -31.857  0.00  0.00    +0.000 A 
ATOM     33  H   UNL     1     -43.119  -6.251 -32.941  0.00  0.00    +0.000 HD
ENDBRANCH  21  22
ENDBRANCH   6  21
TORSDOF 4
ENDMDL
