MODEL 1
REMARK VINA RESULT:      -6.2      0.000      0.000
REMARK  Name = ZINC000018195878 ZINC18195878
REMARK  2 active torsions:
REMARK  status: ('A' for Active; 'I' for Inactive)
REMARK    1  A    between atoms: C_6  and  C_21
REMARK    2  A    between atoms: C_11  and  O_12
REMARK                            x       y       z     vdW  Elec       q    Type
REMARK                         _______ _______ _______ _____ _____    ______ ____
ROOT
ATOM      1  C   UNL     1     -44.006  -0.099 -32.181  0.00  0.00    +0.000 C 
ATOM      2  C   UNL     1     -44.228  -1.593 -32.287  0.00  0.00    +0.000 C 
ATOM      3  C   UNL     1     -45.250  -2.011 -31.227  0.00  0.00    +0.000 C 
ATOM      4  C   UNL     1     -45.368  -3.503 -31.056  0.00  0.00    +0.000 C 
ATOM      5  C   UNL     1     -44.341  -4.344 -31.382  0.00  0.00    +0.000 C 
ATOM      6  C   UNL     1     -44.467  -5.868 -31.265  0.00  0.00    +0.000 C 
ATOM      7  C   UNL     1     -45.695  -6.264 -30.504  0.00  0.00    +0.000 A 
ATOM      8  C   UNL     1     -46.678  -5.393 -30.179  0.00  0.00    +0.000 A 
ATOM      9  N   UNL     1     -47.697  -6.012 -29.557  0.00  0.00    +0.000 N 
ATOM     10  N   UNL     1     -47.381  -7.302 -29.484  0.00  0.00    +0.000 NA
ATOM     11  C   UNL     1     -46.171  -7.472 -30.059  0.00  0.00    +0.000 A 
ATOM     12  N   UNL     1     -46.579  -4.003 -30.459  0.00  0.00    +0.000 N 
ATOM     13  C   UNL     1     -43.069  -3.780 -31.898  0.00  0.00    +0.000 C 
ATOM     14  O   UNL     1     -42.101  -4.537 -32.167  0.00  0.00    +0.000 OA
ATOM     15  C   UNL     1     -42.895  -2.300 -32.055  0.00  0.00    +0.000 C 
ATOM     16  C   UNL     1     -44.756  -1.900 -33.680  0.00  0.00    +0.000 C 
ATOM     17  H   UNL     1     -48.521  -5.591 -29.220  0.00  0.00    +0.000 HD
ATOM     18  H   UNL     1     -47.323  -3.395 -30.249  0.00  0.00    +0.000 HD
ENDROOT
BRANCH   6  19
ATOM     19  C   UNL     1     -44.456  -6.523 -32.617  0.00  0.00    +0.000 A 
ATOM     20  C   UNL     1     -45.336  -6.068 -33.602  0.00  0.00    +0.000 A 
ATOM     21  C   UNL     1     -45.323  -6.668 -34.862  0.00  0.00    +0.000 A 
ATOM     22  N   UNL     1     -44.458  -7.685 -35.125  0.00  0.00    +0.000 NA
ATOM     23  C   UNL     1     -43.589  -8.143 -34.183  0.00  0.00    +0.000 A 
ATOM     24  C   UNL     1     -43.571  -7.568 -32.911  0.00  0.00    +0.000 A 
ENDBRANCH   6  19
BRANCH  11  25
ATOM     25  O   UNL     1     -45.529  -8.698 -30.178  0.00  0.00    +0.000 OA
ATOM     26  H   UNL     1     -45.077  -9.064 -29.443  0.00  0.00    +0.000 HD
ENDBRANCH  11  25
TORSDOF 2
ENDMDL
MODEL 2
REMARK VINA RESULT:      -6.2      2.289      3.769
REMARK  Name = ZINC000018195878 ZINC18195878
REMARK  2 active torsions:
REMARK  status: ('A' for Active; 'I' for Inactive)
REMARK    1  A    between atoms: C_6  and  C_21
REMARK    2  A    between atoms: C_11  and  O_12
REMARK                            x       y       z     vdW  Elec       q    Type
REMARK                         _______ _______ _______ _____ _____    ______ ____
ROOT
ATOM      1  C   UNL     1     -43.642  -0.537 -33.379  0.00  0.00    +0.000 C 
ATOM      2  C   UNL     1     -43.985  -1.814 -32.643  0.00  0.00    +0.000 C 
ATOM      3  C   UNL     1     -44.583  -2.807 -33.641  0.00  0.00    +0.000 C 
ATOM      4  C   UNL     1     -45.201  -4.019 -32.991  0.00  0.00    +0.000 C 
ATOM      5  C   UNL     1     -45.659  -3.986 -31.705  0.00  0.00    +0.000 C 
ATOM      6  C   UNL     1     -46.239  -5.226 -31.013  0.00  0.00    +0.000 C 
ATOM      7  C   UNL     1     -46.493  -6.335 -31.989  0.00  0.00    +0.000 A 
ATOM      8  C   UNL     1     -46.042  -6.316 -33.265  0.00  0.00    +0.000 A 
ATOM      9  N   UNL     1     -46.347  -7.456 -33.910  0.00  0.00    +0.000 N 
ATOM     10  N   UNL     1     -46.994  -8.230 -33.044  0.00  0.00    +0.000 NA
ATOM     11  C   UNL     1     -47.088  -7.566 -31.872  0.00  0.00    +0.000 A 
ATOM     12  N   UNL     1     -45.362  -5.193 -33.809  0.00  0.00    +0.000 N 
ATOM     13  C   UNL     1     -45.569  -2.725 -30.928  0.00  0.00    +0.000 C 
ATOM     14  O   UNL     1     -46.021  -2.666 -29.755  0.00  0.00    +0.000 OA
ATOM     15  C   UNL     1     -44.992  -1.486 -31.543  0.00  0.00    +0.000 C 
ATOM     16  C   UNL     1     -42.705  -2.376 -32.041  0.00  0.00    +0.000 C 
ATOM     17  H   UNL     1     -46.131  -7.675 -34.845  0.00  0.00    +0.000 HD
ATOM     18  H   UNL     1     -45.009  -5.218 -34.727  0.00  0.00    +0.000 HD
ENDROOT
BRANCH   6  19
ATOM     19  C   UNL     1     -45.345  -5.701 -29.904  0.00  0.00    +0.000 A 
ATOM     20  C   UNL     1     -43.981  -5.873 -30.153  0.00  0.00    +0.000 A 
ATOM     21  C   UNL     1     -43.146  -6.307 -29.122  0.00  0.00    +0.000 A 
ATOM     22  N   UNL     1     -43.659  -6.557 -27.887  0.00  0.00    +0.000 NA
ATOM     23  C   UNL     1     -44.982  -6.393 -27.619  0.00  0.00    +0.000 A 
ATOM     24  C   UNL     1     -45.850  -5.960 -28.623  0.00  0.00    +0.000 A 
ENDBRANCH   6  19
BRANCH  11  25
ATOM     25  O   UNL     1     -47.691  -8.077 -30.731  0.00  0.00    +0.000 OA
ATOM     26  H   UNL     1     -47.824  -7.527 -29.983  0.00  0.00    +0.000 HD
ENDBRANCH  11  25
TORSDOF 2
ENDMDL
MODEL 3
REMARK VINA RESULT:      -5.7      2.459      4.235
REMARK  Name = ZINC000018195878 ZINC18195878
REMARK  2 active torsions:
REMARK  status: ('A' for Active; 'I' for Inactive)
REMARK    1  A    between atoms: C_6  and  C_21
REMARK    2  A    between atoms: C_11  and  O_12
REMARK                            x       y       z     vdW  Elec       q    Type
REMARK                         _______ _______ _______ _____ _____    ______ ____
ROOT
ATOM      1  C   UNL     1     -44.736  -1.964 -33.601  0.00  0.00    +0.000 C 
ATOM      2  C   UNL     1     -44.905  -3.085 -32.598  0.00  0.00    +0.000 C 
ATOM      3  C   UNL     1     -45.310  -4.355 -33.349  0.00  0.00    +0.000 C 
ATOM      4  C   UNL     1     -45.757  -5.476 -32.447  0.00  0.00    +0.000 C 
ATOM      5  C   UNL     1     -46.259  -5.233 -31.199  0.00  0.00    +0.000 C 
ATOM      6  C   UNL     1     -46.667  -6.366 -30.249  0.00  0.00    +0.000 C 
ATOM      7  C   UNL     1     -46.714  -7.687 -30.953  0.00  0.00    +0.000 A 
ATOM      8  C   UNL     1     -46.228  -7.880 -32.201  0.00  0.00    +0.000 A 
ATOM      9  N   UNL     1     -46.333  -9.166 -32.577  0.00  0.00    +0.000 N 
ATOM     10  N   UNL     1     -46.884  -9.823 -31.560  0.00  0.00    +0.000 NA
ATOM     11  C   UNL     1     -47.118  -8.940 -30.565  0.00  0.00    +0.000 A 
ATOM     12  N   UNL     1     -45.709  -6.811 -32.983  0.00  0.00    +0.000 N 
ATOM     13  C   UNL     1     -46.389  -3.834 -30.723  0.00  0.00    +0.000 C 
ATOM     14  O   UNL     1     -46.885  -3.590 -29.593  0.00  0.00    +0.000 OA
ATOM     15  C   UNL     1     -45.987  -2.686 -31.598  0.00  0.00    +0.000 C 
ATOM     16  C   UNL     1     -43.576  -3.294 -31.887  0.00  0.00    +0.000 C 
ATOM     17  H   UNL     1     -46.054  -9.550 -33.440  0.00  0.00    +0.000 HD
ATOM     18  H   UNL     1     -45.325  -6.982 -33.872  0.00  0.00    +0.000 HD
ENDROOT
BRANCH   6  19
ATOM     19  C   UNL     1     -45.749  -6.440 -29.062  0.00  0.00    +0.000 A 
ATOM     20  C   UNL     1     -44.367  -6.434 -29.267  0.00  0.00    +0.000 A 
ATOM     21  C   UNL     1     -43.511  -6.494 -28.165  0.00  0.00    +0.000 A 
ATOM     22  N   UNL     1     -44.023  -6.555 -26.906  0.00  0.00    +0.000 NA
ATOM     23  C   UNL     1     -45.364  -6.558 -26.681  0.00  0.00    +0.000 A 
ATOM     24  C   UNL     1     -46.253  -6.498 -27.756  0.00  0.00    +0.000 A 
ENDBRANCH   6  19
BRANCH  11  25
ATOM     25  O   UNL     1     -47.675  -9.276 -29.338  0.00  0.00    +0.000 OA
ATOM     26  H   UNL     1     -48.469  -8.865 -29.055  0.00  0.00    +0.000 HD
ENDBRANCH  11  25
TORSDOF 2
ENDMDL
