MODEL 1
REMARK VINA RESULT:      -7.0      0.000      0.000
REMARK  Name = ZINC000009910163 ZINC09910163 CSC027488492 MCULE-9624540958 MolPort-005-796-296 PubChem-16372402
REMARK  7 active torsions:
REMARK  status: ('A' for Active; 'I' for Inactive)
REMARK    1  A    between atoms: C_1  and  S_28
REMARK    2  A    between atoms: C_9  and  C_13
REMARK    3  A    between atoms: N_15  and  C_17
REMARK    4  A    between atoms: C_17  and  C_18
REMARK    5  A    between atoms: S_28  and  N_31
REMARK    6  A    between atoms: N_31  and  C_33
REMARK    7  A    between atoms: N_31  and  C_34
REMARK                            x       y       z     vdW  Elec       q    Type
REMARK                         _______ _______ _______ _____ _____    ______ ____
ROOT
ATOM      1  C   UNL     1     -44.297 -19.080 -23.854  0.00  0.00    +0.000 A 
ATOM      2  C   UNL     1     -43.037 -19.654 -24.048  0.00  0.00    +0.000 A 
ATOM      3  C   UNL     1     -42.262 -20.034 -22.951  0.00  0.00    +0.000 A 
ATOM      4  C   UNL     1     -42.743 -19.847 -21.652  0.00  0.00    +0.000 A 
ATOM      5  N   UNL     1     -41.978 -20.212 -20.591  0.00  0.00    +0.000 N 
ATOM      6  C   UNL     1     -42.406 -20.045 -19.313  0.00  0.00    +0.000 A 
ATOM      7  O   UNL     1     -41.670 -20.395 -18.354  0.00  0.00    +0.000 OA
ATOM      8  C   UNL     1     -43.660 -19.490 -19.061  0.00  0.00    +0.000 A 
ATOM      9  C   UNL     1     -44.484 -19.093 -20.121  0.00  0.00    +0.000 A 
ATOM     10  C   UNL     1     -44.022 -19.275 -21.444  0.00  0.00    +0.000 A 
ATOM     11  C   UNL     1     -44.783 -18.889 -22.557  0.00  0.00    +0.000 A 
ATOM     12  H   UNL     1     -41.091 -20.608 -20.753  0.00  0.00    +0.000 HD
ENDROOT
BRANCH   9  13
ATOM     13  C   UNL     1     -45.830 -18.542 -19.815  0.00  0.00    +0.000 C 
ATOM     14  O   UNL     1     -46.837 -19.297 -19.917  0.00  0.00    +0.000 OA
ATOM     15  N   UNL     1     -46.012 -17.180 -19.386  0.00  0.00    +0.000 N 
ATOM     16  C   UNL     1     -47.315 -16.749 -18.897  0.00  0.00    +0.000 C 
BRANCH  15  17
ATOM     17  C   UNL     1     -45.003 -16.161 -19.658  0.00  0.00    +0.000 C 
BRANCH  17  18
ATOM     18  C   UNL     1     -45.637 -14.921 -20.203  0.00  0.00    +0.000 A 
ATOM     19  N   UNL     1     -46.140 -14.821 -21.449  0.00  0.00    +0.000 NA
ATOM     20  N   UNL     1     -46.578 -13.578 -21.589  0.00  0.00    +0.000 NA
ATOM     21  C   UNL     1     -46.315 -12.932 -20.437  0.00  0.00    +0.000 A 
ATOM     22  C   UNL     1     -46.782 -11.533 -20.163  0.00  0.00    +0.000 C 
ATOM     23  C   UNL     1     -45.871 -10.816 -19.176  0.00  0.00    +0.000 C 
ATOM     24  C   UNL     1     -46.203 -11.161 -17.721  0.00  0.00    +0.000 C 
ATOM     25  C   UNL     1     -46.323 -12.661 -17.432  0.00  0.00    +0.000 C 
ATOM     26  C   UNL     1     -45.273 -13.469 -18.183  0.00  0.00    +0.000 C 
ATOM     27  N   UNL     1     -45.731 -13.755 -19.540  0.00  0.00    +0.000 N 
ENDBRANCH  17  18
ENDBRANCH  15  17
ENDBRANCH   9  13
BRANCH   1  28
ATOM     28  S   UNL     1     -45.276 -18.596 -25.227  0.00  0.00    +0.000 S 
ATOM     29  O   UNL     1     -46.720 -18.927 -24.962  0.00  0.00    +0.000 OA
ATOM     30  O   UNL     1     -44.816 -19.354 -26.440  0.00  0.00    +0.000 OA
BRANCH  28  31
ATOM     31  N   UNL     1     -45.102 -16.887 -25.497  0.00  0.00    +0.000 NA
BRANCH  31  33
ATOM     32  C   UNL     1     -46.192 -14.743 -25.151  0.00  0.00    +0.000 C 
ATOM     33  C   UNL     1     -46.168 -16.212 -24.774  0.00  0.00    +0.000 C 
ENDBRANCH  31  33
BRANCH  31  34
ATOM     34  C   UNL     1     -43.852 -16.464 -24.886  0.00  0.00    +0.000 C 
ATOM     35  C   UNL     1     -42.775 -16.358 -25.945  0.00  0.00    +0.000 C 
ENDBRANCH  31  34
ENDBRANCH  28  31
ENDBRANCH   1  28
TORSDOF 7
ENDMDL
MODEL 2
REMARK VINA RESULT:      -6.8      3.250      7.765
REMARK  Name = ZINC000009910163 ZINC09910163 CSC027488492 MCULE-9624540958 MolPort-005-796-296 PubChem-16372402
REMARK  7 active torsions:
REMARK  status: ('A' for Active; 'I' for Inactive)
REMARK    1  A    between atoms: C_1  and  S_28
REMARK    2  A    between atoms: C_9  and  C_13
REMARK    3  A    between atoms: N_15  and  C_17
REMARK    4  A    between atoms: C_17  and  C_18
REMARK    5  A    between atoms: S_28  and  N_31
REMARK    6  A    between atoms: N_31  and  C_33
REMARK    7  A    between atoms: N_31  and  C_34
REMARK                            x       y       z     vdW  Elec       q    Type
REMARK                         _______ _______ _______ _____ _____    ______ ____
ROOT
ATOM      1  C   UNL     1     -45.618 -14.380 -24.753  0.00  0.00    +0.000 A 
ATOM      2  C   UNL     1     -45.728 -13.694 -23.539  0.00  0.00    +0.000 A 
ATOM      3  C   UNL     1     -45.756 -14.399 -22.335  0.00  0.00    +0.000 A 
ATOM      4  C   UNL     1     -45.671 -15.794 -22.335  0.00  0.00    +0.000 A 
ATOM      5  N   UNL     1     -45.709 -16.471 -21.158  0.00  0.00    +0.000 N 
ATOM      6  C   UNL     1     -45.633 -17.826 -21.113  0.00  0.00    +0.000 A 
ATOM      7  O   UNL     1     -45.671 -18.420 -20.005  0.00  0.00    +0.000 OA
ATOM      8  C   UNL     1     -45.510 -18.561 -22.292  0.00  0.00    +0.000 A 
ATOM      9  C   UNL     1     -45.472 -17.909 -23.531  0.00  0.00    +0.000 A 
ATOM     10  C   UNL     1     -45.551 -16.499 -23.557  0.00  0.00    +0.000 A 
ATOM     11  C   UNL     1     -45.535 -15.775 -24.759  0.00  0.00    +0.000 A 
ATOM     12  H   UNL     1     -45.794 -15.967 -20.317  0.00  0.00    +0.000 HD
ENDROOT
BRANCH   9  13
ATOM     13  C   UNL     1     -45.299 -18.721 -24.763  0.00  0.00    +0.000 C 
ATOM     14  O   UNL     1     -46.315 -19.252 -25.292  0.00  0.00    +0.000 OA
ATOM     15  N   UNL     1     -44.011 -18.900 -25.379  0.00  0.00    +0.000 N 
ATOM     16  C   UNL     1     -43.923 -19.521 -26.694  0.00  0.00    +0.000 C 
BRANCH  15  17
ATOM     17  C   UNL     1     -42.778 -18.702 -24.623  0.00  0.00    +0.000 C 
BRANCH  17  18
ATOM     18  C   UNL     1     -42.143 -20.015 -24.293  0.00  0.00    +0.000 A 
ATOM     19  N   UNL     1     -42.666 -20.905 -23.428  0.00  0.00    +0.000 NA
ATOM     20  N   UNL     1     -41.818 -21.921 -23.359  0.00  0.00    +0.000 NA
ATOM     21  C   UNL     1     -40.780 -21.626 -24.165  0.00  0.00    +0.000 A 
ATOM     22  C   UNL     1     -39.673 -22.597 -24.454  0.00  0.00    +0.000 C 
ATOM     23  C   UNL     1     -38.373 -21.884 -24.803  0.00  0.00    +0.000 C 
ATOM     24  C   UNL     1     -38.320 -21.458 -26.273  0.00  0.00    +0.000 C 
ATOM     25  C   UNL     1     -39.559 -20.701 -26.764  0.00  0.00    +0.000 C 
ATOM     26  C   UNL     1     -40.086 -19.735 -25.713  0.00  0.00    +0.000 C 
ATOM     27  N   UNL     1     -40.961 -20.436 -24.775  0.00  0.00    +0.000 N 
ENDBRANCH  17  18
ENDBRANCH  15  17
ENDBRANCH   9  13
BRANCH   1  28
ATOM     28  S   UNL     1     -45.585 -13.502 -26.272  0.00  0.00    +0.000 S 
ATOM     29  O   UNL     1     -44.670 -12.313 -26.150  0.00  0.00    +0.000 OA
ATOM     30  O   UNL     1     -46.974 -13.021 -26.583  0.00  0.00    +0.000 OA
BRANCH  28  31
ATOM     31  N   UNL     1     -45.024 -14.550 -27.541  0.00  0.00    +0.000 NA
BRANCH  31  33
ATOM     32  C   UNL     1     -44.288 -13.299 -29.489  0.00  0.00    +0.000 C 
ATOM     33  C   UNL     1     -45.457 -13.984 -28.809  0.00  0.00    +0.000 C 
ENDBRANCH  31  33
BRANCH  31  34
ATOM     34  C   UNL     1     -43.571 -14.510 -27.543  0.00  0.00    +0.000 C 
ATOM     35  C   UNL     1     -43.020 -15.908 -27.354  0.00  0.00    +0.000 C 
ENDBRANCH  31  34
ENDBRANCH  28  31
ENDBRANCH   1  28
TORSDOF 7
ENDMDL
MODEL 3
REMARK VINA RESULT:      -6.7      3.690      6.714
REMARK  Name = ZINC000009910163 ZINC09910163 CSC027488492 MCULE-9624540958 MolPort-005-796-296 PubChem-16372402
REMARK  7 active torsions:
REMARK  status: ('A' for Active; 'I' for Inactive)
REMARK    1  A    between atoms: C_1  and  S_28
REMARK    2  A    between atoms: C_9  and  C_13
REMARK    3  A    between atoms: N_15  and  C_17
REMARK    4  A    between atoms: C_17  and  C_18
REMARK    5  A    between atoms: S_28  and  N_31
REMARK    6  A    between atoms: N_31  and  C_33
REMARK    7  A    between atoms: N_31  and  C_34
REMARK                            x       y       z     vdW  Elec       q    Type
REMARK                         _______ _______ _______ _____ _____    ______ ____
ROOT
ATOM      1  C   UNL     1     -42.495 -17.205 -28.221  0.00  0.00    +0.000 A 
ATOM      2  C   UNL     1     -42.722 -15.847 -28.468  0.00  0.00    +0.000 A 
ATOM      3  C   UNL     1     -43.680 -15.150 -27.729  0.00  0.00    +0.000 A 
ATOM      4  C   UNL     1     -44.416 -15.804 -26.737  0.00  0.00    +0.000 A 
ATOM      5  N   UNL     1     -45.352 -15.119 -26.031  0.00  0.00    +0.000 N 
ATOM      6  C   UNL     1     -46.091 -15.717 -25.061  0.00  0.00    +0.000 A 
ATOM      7  O   UNL     1     -46.950 -15.052 -24.427  0.00  0.00    +0.000 OA
ATOM      8  C   UNL     1     -45.898 -17.065 -24.763  0.00  0.00    +0.000 A 
ATOM      9  C   UNL     1     -44.947 -17.816 -25.467  0.00  0.00    +0.000 A 
ATOM     10  C   UNL     1     -44.188 -17.177 -26.472  0.00  0.00    +0.000 A 
ATOM     11  C   UNL     1     -43.229 -17.864 -27.231  0.00  0.00    +0.000 A 
ATOM     12  H   UNL     1     -45.499 -14.166 -26.228  0.00  0.00    +0.000 HD
ENDROOT
BRANCH   9  13
ATOM     13  C   UNL     1     -44.741 -19.240 -25.096  0.00  0.00    +0.000 C 
ATOM     14  O   UNL     1     -45.535 -20.111 -25.548  0.00  0.00    +0.000 OA
ATOM     15  N   UNL     1     -43.648 -19.653 -24.255  0.00  0.00    +0.000 N 
ATOM     16  C   UNL     1     -43.362 -21.072 -24.093  0.00  0.00    +0.000 C 
BRANCH  15  17
ATOM     17  C   UNL     1     -42.977 -18.706 -23.369  0.00  0.00    +0.000 C 
BRANCH  17  18
ATOM     18  C   UNL     1     -43.095 -19.141 -21.943  0.00  0.00    +0.000 A 
ATOM     19  N   UNL     1     -42.127 -19.801 -21.277  0.00  0.00    +0.000 NA
ATOM     20  N   UNL     1     -42.596 -20.052 -20.063  0.00  0.00    +0.000 NA
ATOM     21  C   UNL     1     -43.850 -19.562 -20.014  0.00  0.00    +0.000 A 
ATOM     22  C   UNL     1     -44.665 -19.539 -18.754  0.00  0.00    +0.000 C 
ATOM     23  C   UNL     1     -46.159 -19.576 -19.047  0.00  0.00    +0.000 C 
ATOM     24  C   UNL     1     -46.721 -18.191 -19.380  0.00  0.00    +0.000 C 
ATOM     25  C   UNL     1     -45.929 -17.419 -20.441  0.00  0.00    +0.000 C 
ATOM     26  C   UNL     1     -45.444 -18.330 -21.560  0.00  0.00    +0.000 C 
ATOM     27  N   UNL     1     -44.189 -18.973 -21.180  0.00  0.00    +0.000 N 
ENDBRANCH  17  18
ENDBRANCH  15  17
ENDBRANCH   9  13
BRANCH   1  28
ATOM     28  S   UNL     1     -41.295 -18.090 -29.145  0.00  0.00    +0.000 S 
ATOM     29  O   UNL     1     -40.049 -17.257 -29.286  0.00  0.00    +0.000 OA
ATOM     30  O   UNL     1     -41.851 -18.373 -30.513  0.00  0.00    +0.000 OA
BRANCH  28  31
ATOM     31  N   UNL     1     -40.919 -19.583 -28.339  0.00  0.00    +0.000 NA
BRANCH  31  33
ATOM     32  C   UNL     1     -41.652 -21.681 -29.322  0.00  0.00    +0.000 C 
ATOM     33  C   UNL     1     -40.615 -20.575 -29.358  0.00  0.00    +0.000 C 
ENDBRANCH  31  33
BRANCH  31  34
ATOM     34  C   UNL     1     -39.697 -19.383 -27.576  0.00  0.00    +0.000 C 
ATOM     35  C   UNL     1     -40.033 -19.194 -26.112  0.00  0.00    +0.000 C 
ENDBRANCH  31  34
ENDBRANCH  28  31
ENDBRANCH   1  28
TORSDOF 7
ENDMDL
