MODEL 1
REMARK VINA RESULT:      -7.3      0.000      0.000
REMARK  Name = ZINC000015841380 ZINC15841380 ChemDiv-D468-2065 MCULE-3603103277 MolPort-004-901-220 PubChem-20897503
REMARK  2 active torsions:
REMARK  status: ('A' for Active; 'I' for Inactive)
REMARK    1  A    between atoms: C_10  and  C_14
REMARK    2  A    between atoms: N_16  and  C_18
REMARK                            x       y       z     vdW  Elec       q    Type
REMARK                         _______ _______ _______ _____ _____    ______ ____
ROOT
ATOM      1  C   UNL     1     -45.508 -12.405 -23.833  0.00  0.00    +0.000 C 
ATOM      2  C   UNL     1     -45.536 -13.883 -24.029  0.00  0.00    +0.000 A 
ATOM      3  C   UNL     1     -45.880 -14.454 -25.270  0.00  0.00    +0.000 A 
ATOM      4  C   UNL     1     -46.233 -13.607 -26.446  0.00  0.00    +0.000 C 
ATOM      5  C   UNL     1     -45.894 -15.845 -25.416  0.00  0.00    +0.000 A 
ATOM      6  C   UNL     1     -45.567 -16.673 -24.335  0.00  0.00    +0.000 A 
ATOM      7  C   UNL     1     -45.571 -18.069 -24.445  0.00  0.00    +0.000 A 
ATOM      8  O   UNL     1     -45.874 -18.637 -25.529  0.00  0.00    +0.000 OA
ATOM      9  C   UNL     1     -45.229 -18.841 -23.336  0.00  0.00    +0.000 A 
ATOM     10  C   UNL     1     -44.890 -18.203 -22.135  0.00  0.00    +0.000 A 
ATOM     11  O   UNL     1     -44.909 -16.873 -22.059  0.00  0.00    +0.000 OA
ATOM     12  C   UNL     1     -45.223 -16.099 -23.094  0.00  0.00    +0.000 A 
ATOM     13  C   UNL     1     -45.210 -14.710 -22.949  0.00  0.00    +0.000 A 
ENDROOT
BRANCH  10  14
ATOM     14  C   UNL     1     -44.528 -19.003 -20.947  0.00  0.00    +0.000 C 
ATOM     15  O   UNL     1     -43.678 -19.926 -21.057  0.00  0.00    +0.000 OA
ATOM     16  N   UNL     1     -45.166 -18.802 -19.678  0.00  0.00    +0.000 N 
ATOM     17  H   UNL     1     -45.302 -19.600 -19.116  0.00  0.00    +0.000 HD
BRANCH  16  18
ATOM     18  C   UNL     1     -45.623 -17.551 -19.152  0.00  0.00    +0.000 A 
ATOM     19  C   UNL     1     -44.717 -16.582 -18.681  0.00  0.00    +0.000 A 
ATOM     20  C   UNL     1     -45.204 -15.387 -18.155  0.00  0.00    +0.000 A 
ATOM     21  N   UNL     1     -44.392 -14.403 -17.698  0.00  0.00    +0.000 NA
ATOM     22  S   UNL     1     -45.527 -13.295 -17.225  0.00  0.00    +0.000 S 
ATOM     23  N   UNL     1     -47.001 -13.969 -17.556  0.00  0.00    +0.000 NA
ATOM     24  C   UNL     1     -46.604 -15.155 -18.079  0.00  0.00    +0.000 A 
ATOM     25  C   UNL     1     -47.503 -16.122 -18.525  0.00  0.00    +0.000 A 
ATOM     26  C   UNL     1     -47.006 -17.321 -19.056  0.00  0.00    +0.000 A 
ENDBRANCH  16  18
ENDBRANCH  10  14
TORSDOF 2
ENDMDL
MODEL 2
REMARK VINA RESULT:      -6.9      3.371      4.887
REMARK  Name = ZINC000015841380 ZINC15841380 ChemDiv-D468-2065 MCULE-3603103277 MolPort-004-901-220 PubChem-20897503
REMARK  2 active torsions:
REMARK  status: ('A' for Active; 'I' for Inactive)
REMARK    1  A    between atoms: C_10  and  C_14
REMARK    2  A    between atoms: N_16  and  C_18
REMARK                            x       y       z     vdW  Elec       q    Type
REMARK                         _______ _______ _______ _____ _____    ______ ____
ROOT
ATOM      1  C   UNL     1     -40.852 -17.439 -28.476  0.00  0.00    +0.000 C 
ATOM      2  C   UNL     1     -42.010 -17.901 -27.659  0.00  0.00    +0.000 A 
ATOM      3  C   UNL     1     -42.554 -19.190 -27.818  0.00  0.00    +0.000 A 
ATOM      4  C   UNL     1     -41.998 -20.154 -28.810  0.00  0.00    +0.000 C 
ATOM      5  C   UNL     1     -43.641 -19.588 -27.032  0.00  0.00    +0.000 A 
ATOM      6  C   UNL     1     -44.191 -18.711 -26.089  0.00  0.00    +0.000 A 
ATOM      7  C   UNL     1     -45.279 -19.075 -25.286  0.00  0.00    +0.000 A 
ATOM      8  O   UNL     1     -45.810 -20.214 -25.386  0.00  0.00    +0.000 OA
ATOM      9  C   UNL     1     -45.779 -18.161 -24.360  0.00  0.00    +0.000 A 
ATOM     10  C   UNL     1     -45.181 -16.898 -24.253  0.00  0.00    +0.000 A 
ATOM     11  O   UNL     1     -44.156 -16.577 -25.040  0.00  0.00    +0.000 OA
ATOM     12  C   UNL     1     -43.645 -17.420 -25.933  0.00  0.00    +0.000 A 
ATOM     13  C   UNL     1     -42.560 -17.024 -26.718  0.00  0.00    +0.000 A 
ENDROOT
BRANCH  10  14
ATOM     14  C   UNL     1     -45.697 -15.914 -23.280  0.00  0.00    +0.000 C 
ATOM     15  O   UNL     1     -46.513 -15.033 -23.661  0.00  0.00    +0.000 OA
ATOM     16  N   UNL     1     -45.246 -15.890 -21.918  0.00  0.00    +0.000 N 
ATOM     17  H   UNL     1     -45.182 -15.008 -21.485  0.00  0.00    +0.000 HD
BRANCH  16  18
ATOM     18  C   UNL     1     -44.882 -17.029 -21.130  0.00  0.00    +0.000 A 
ATOM     19  C   UNL     1     -43.535 -17.407 -20.971  0.00  0.00    +0.000 A 
ATOM     20  C   UNL     1     -43.224 -18.535 -20.215  0.00  0.00    +0.000 A 
ATOM     21  N   UNL     1     -41.951 -18.949 -20.007  0.00  0.00    +0.000 NA
ATOM     22  S   UNL     1     -42.236 -20.285 -19.071  0.00  0.00    +0.000 S 
ATOM     23  N   UNL     1     -43.878 -20.391 -18.900  0.00  0.00    +0.000 NA
ATOM     24  C   UNL     1     -44.259 -19.308 -19.622  0.00  0.00    +0.000 A 
ATOM     25  C   UNL     1     -45.594 -18.947 -19.796  0.00  0.00    +0.000 A 
ATOM     26  C   UNL     1     -45.899 -17.809 -20.556  0.00  0.00    +0.000 A 
ENDBRANCH  16  18
ENDBRANCH  10  14
TORSDOF 2
ENDMDL
MODEL 3
REMARK VINA RESULT:      -6.6      3.791      6.285
REMARK  Name = ZINC000015841380 ZINC15841380 ChemDiv-D468-2065 MCULE-3603103277 MolPort-004-901-220 PubChem-20897503
REMARK  2 active torsions:
REMARK  status: ('A' for Active; 'I' for Inactive)
REMARK    1  A    between atoms: C_10  and  C_14
REMARK    2  A    between atoms: N_16  and  C_18
REMARK                            x       y       z     vdW  Elec       q    Type
REMARK                         _______ _______ _______ _____ _____    ______ ____
ROOT
ATOM      1  C   UNL     1     -47.021 -13.366 -20.203  0.00  0.00    +0.000 C 
ATOM      2  C   UNL     1     -46.495 -14.704 -20.599  0.00  0.00    +0.000 A 
ATOM      3  C   UNL     1     -46.233 -15.704 -19.642  0.00  0.00    +0.000 A 
ATOM      4  C   UNL     1     -46.471 -15.472 -18.188  0.00  0.00    +0.000 C 
ATOM      5  C   UNL     1     -45.741 -16.947 -20.052  0.00  0.00    +0.000 A 
ATOM      6  C   UNL     1     -45.506 -17.202 -21.409  0.00  0.00    +0.000 A 
ATOM      7  C   UNL     1     -45.013 -18.435 -21.856  0.00  0.00    +0.000 A 
ATOM      8  O   UNL     1     -44.757 -19.366 -21.046  0.00  0.00    +0.000 OA
ATOM      9  C   UNL     1     -44.806 -18.632 -23.220  0.00  0.00    +0.000 A 
ATOM     10  C   UNL     1     -45.096 -17.593 -24.114  0.00  0.00    +0.000 A 
ATOM     11  O   UNL     1     -45.551 -16.428 -23.656  0.00  0.00    +0.000 OA
ATOM     12  C   UNL     1     -45.768 -16.199 -22.365  0.00  0.00    +0.000 A 
ATOM     13  C   UNL     1     -46.260 -14.957 -21.954  0.00  0.00    +0.000 A 
ENDROOT
BRANCH  10  14
ATOM     14  C   UNL     1     -44.881 -17.781 -25.563  0.00  0.00    +0.000 C 
ATOM     15  O   UNL     1     -45.131 -18.899 -26.087  0.00  0.00    +0.000 OA
ATOM     16  N   UNL     1     -44.332 -16.743 -26.387  0.00  0.00    +0.000 N 
ATOM     17  H   UNL     1     -43.751 -17.024 -27.131  0.00  0.00    +0.000 HD
BRANCH  16  18
ATOM     18  C   UNL     1     -44.549 -15.336 -26.228  0.00  0.00    +0.000 A 
ATOM     19  C   UNL     1     -45.729 -14.723 -26.691  0.00  0.00    +0.000 A 
ATOM     20  C   UNL     1     -45.892 -13.348 -26.538  0.00  0.00    +0.000 A 
ATOM     21  N   UNL     1     -47.006 -12.692 -26.945  0.00  0.00    +0.000 NA
ATOM     22  S   UNL     1     -46.605 -11.148 -26.502  0.00  0.00    +0.000 S 
ATOM     23  N   UNL     1     -45.100 -11.236 -25.821  0.00  0.00    +0.000 NA
ATOM     24  C   UNL     1     -44.868 -12.567 -25.935  0.00  0.00    +0.000 A 
ATOM     25  C   UNL     1     -43.691 -13.169 -25.496  0.00  0.00    +0.000 A 
ATOM     26  C   UNL     1     -43.535 -14.554 -25.650  0.00  0.00    +0.000 A 
ENDBRANCH  16  18
ENDBRANCH  10  14
TORSDOF 2
ENDMDL
