MODEL 1
REMARK VINA RESULT:      -7.1      0.000      0.000
REMARK  Name = ZINC000018200371
REMARK  2 active torsions:
REMARK  status: ('A' for Active; 'I' for Inactive)
REMARK    1  A    between atoms: C_1  and  C_31
REMARK    2  A    between atoms: C_3  and  O_4
REMARK                            x       y       z     vdW  Elec       q    Type
REMARK                         _______ _______ _______ _____ _____    ______ ____
ROOT
ATOM      1  C   UNL     1     -46.193  -5.748 -32.036  0.00  0.00    +0.000 C 
ATOM      2  C   UNL     1     -46.382  -5.779 -30.551  0.00  0.00    +0.000 A 
ATOM      3  C   UNL     1     -47.042  -4.958 -29.673  0.00  0.00    +0.000 A 
ATOM      4  N   UNL     1     -46.896  -5.424 -28.414  0.00  0.00    +0.000 NA
ATOM      5  N   UNL     1     -46.156  -6.529 -28.464  0.00  0.00    +0.000 N 
ATOM      6  C   UNL     1     -45.850  -6.736 -29.756  0.00  0.00    +0.000 A 
ATOM      7  N   UNL     1     -45.088  -7.816 -30.280  0.00  0.00    +0.000 N 
ATOM      8  C   UNL     1     -44.921  -7.919 -31.706  0.00  0.00    +0.000 C 
ATOM      9  C   UNL     1     -45.434  -6.977 -32.553  0.00  0.00    +0.000 C 
ATOM     10  C   UNL     1     -45.317  -7.175 -34.019  0.00  0.00    +0.000 C 
ATOM     11  O   UNL     1     -45.853  -6.362 -34.818  0.00  0.00    +0.000 OA
ATOM     12  C   UNL     1     -44.540  -8.328 -34.580  0.00  0.00    +0.000 C 
ATOM     13  C   UNL     1     -44.527  -9.524 -33.630  0.00  0.00    +0.000 C 
ATOM     14  C   UNL     1     -43.517 -10.531 -34.135  0.00  0.00    +0.000 C 
ATOM     15  C   UNL     1     -45.893 -10.191 -33.595  0.00  0.00    +0.000 C 
ATOM     16  C   UNL     1     -44.113  -9.079 -32.225  0.00  0.00    +0.000 C 
ATOM     17  H   UNL     1     -45.885  -7.087 -27.700  0.00  0.00    +0.000 HD
ATOM     18  H   UNL     1     -44.682  -8.481 -29.678  0.00  0.00    +0.000 HD
ENDROOT
BRANCH   1  29
ATOM     19  C   UNL     1     -47.681  -3.673 -33.685  0.00  0.00    +0.000 C 
ATOM     20  C   UNL     1     -46.266  -3.482 -33.253  0.00  0.00    +0.000 A 
ATOM     21  N   UNL     1     -45.626  -2.339 -33.618  0.00  0.00    +0.000 NA
ATOM     22  C   UNL     1     -44.338  -2.105 -33.262  0.00  0.00    +0.000 A 
ATOM     23  C   UNL     1     -43.696  -0.924 -33.646  0.00  0.00    +0.000 A 
ATOM     24  C   UNL     1     -42.367  -0.702 -33.271  0.00  0.00    +0.000 A 
ATOM     25  C   UNL     1     -41.680  -1.658 -32.514  0.00  0.00    +0.000 A 
ATOM     26  C   UNL     1     -42.319  -2.841 -32.128  0.00  0.00    +0.000 A 
ATOM     27  C   UNL     1     -43.647  -3.066 -32.501  0.00  0.00    +0.000 A 
ATOM     28  N   UNL     1     -44.282  -4.209 -32.135  0.00  0.00    +0.000 NA
ATOM     29  C   UNL     1     -45.575  -4.448 -32.485  0.00  0.00    +0.000 A 
ENDBRANCH   1  29
BRANCH   3  30
ATOM     30  O   UNL     1     -47.756  -3.813 -30.003  0.00  0.00    +0.000 OA
ATOM     31  H   UNL     1     -47.665  -3.038 -29.486  0.00  0.00    +0.000 HD
ENDBRANCH   3  30
TORSDOF 2
ENDMDL
MODEL 2
REMARK VINA RESULT:      -6.7      2.391      4.759
REMARK  Name = ZINC000018200371
REMARK  2 active torsions:
REMARK  status: ('A' for Active; 'I' for Inactive)
REMARK    1  A    between atoms: C_1  and  C_31
REMARK    2  A    between atoms: C_3  and  O_4
REMARK                            x       y       z     vdW  Elec       q    Type
REMARK                         _______ _______ _______ _____ _____    ______ ____
ROOT
ATOM      1  C   UNL     1     -44.036  -6.526 -31.327  0.00  0.00    +0.000 C 
ATOM      2  C   UNL     1     -44.969  -7.027 -32.386  0.00  0.00    +0.000 A 
ATOM      3  C   UNL     1     -44.830  -7.237 -33.734  0.00  0.00    +0.000 A 
ATOM      4  N   UNL     1     -45.993  -7.692 -34.248  0.00  0.00    +0.000 NA
ATOM      5  N   UNL     1     -46.877  -7.780 -33.258  0.00  0.00    +0.000 N 
ATOM      6  C   UNL     1     -46.253  -7.377 -32.138  0.00  0.00    +0.000 A 
ATOM      7  N   UNL     1     -46.811  -7.327 -30.832  0.00  0.00    +0.000 N 
ATOM      8  C   UNL     1     -45.968  -6.936 -29.732  0.00  0.00    +0.000 C 
ATOM      9  C   UNL     1     -44.666  -6.569 -29.928  0.00  0.00    +0.000 C 
ATOM     10  C   UNL     1     -43.810  -6.266 -28.754  0.00  0.00    +0.000 C 
ATOM     11  O   UNL     1     -42.587  -6.004 -28.906  0.00  0.00    +0.000 OA
ATOM     12  C   UNL     1     -44.385  -6.238 -27.369  0.00  0.00    +0.000 C 
ATOM     13  C   UNL     1     -45.592  -7.165 -27.235  0.00  0.00    +0.000 C 
ATOM     14  C   UNL     1     -46.270  -6.885 -25.911  0.00  0.00    +0.000 C 
ATOM     15  C   UNL     1     -45.149  -8.620 -27.248  0.00  0.00    +0.000 C 
ATOM     16  C   UNL     1     -46.592  -6.899 -28.361  0.00  0.00    +0.000 C 
ATOM     17  H   UNL     1     -47.811  -8.083 -33.332  0.00  0.00    +0.000 HD
ATOM     18  H   UNL     1     -47.757  -7.554 -30.682  0.00  0.00    +0.000 HD
ENDROOT
BRANCH   1  29
ATOM     19  C   UNL     1     -41.155  -6.064 -32.174  0.00  0.00    +0.000 C 
ATOM     20  C   UNL     1     -42.143  -4.952 -32.072  0.00  0.00    +0.000 A 
ATOM     21  N   UNL     1     -41.730  -3.690 -32.365  0.00  0.00    +0.000 NA
ATOM     22  C   UNL     1     -42.576  -2.633 -32.286  0.00  0.00    +0.000 A 
ATOM     23  C   UNL     1     -42.135  -1.342 -32.592  0.00  0.00    +0.000 A 
ATOM     24  C   UNL     1     -43.022  -0.264 -32.504  0.00  0.00    +0.000 A 
ATOM     25  C   UNL     1     -44.349  -0.475 -32.111  0.00  0.00    +0.000 A 
ATOM     26  C   UNL     1     -44.795  -1.766 -31.805  0.00  0.00    +0.000 A 
ATOM     27  C   UNL     1     -43.911  -2.844 -31.892  0.00  0.00    +0.000 A 
ATOM     28  N   UNL     1     -44.327  -4.102 -31.598  0.00  0.00    +0.000 NA
ATOM     29  C   UNL     1     -43.484  -5.168 -31.678  0.00  0.00    +0.000 A 
ENDBRANCH   1  29
BRANCH   3  30
ATOM     30  O   UNL     1     -43.679  -7.018 -34.481  0.00  0.00    +0.000 OA
ATOM     31  H   UNL     1     -43.014  -7.676 -34.522  0.00  0.00    +0.000 HD
ENDBRANCH   3  30
TORSDOF 2
ENDMDL
MODEL 3
REMARK VINA RESULT:      -6.6     10.228     13.189
REMARK  Name = ZINC000018200371
REMARK  2 active torsions:
REMARK  status: ('A' for Active; 'I' for Inactive)
REMARK    1  A    between atoms: C_1  and  C_31
REMARK    2  A    between atoms: C_3  and  O_4
REMARK                            x       y       z     vdW  Elec       q    Type
REMARK                         _______ _______ _______ _____ _____    ______ ____
ROOT
ATOM      1  C   UNL     1     -43.579 -16.541 -25.415  0.00  0.00    +0.000 C 
ATOM      2  C   UNL     1     -44.509 -17.685 -25.157  0.00  0.00    +0.000 A 
ATOM      3  C   UNL     1     -44.924 -18.746 -25.922  0.00  0.00    +0.000 A 
ATOM      4  N   UNL     1     -45.796 -19.501 -25.219  0.00  0.00    +0.000 NA
ATOM      5  N   UNL     1     -45.950 -18.949 -24.019  0.00  0.00    +0.000 N 
ATOM      6  C   UNL     1     -45.171 -17.854 -23.989  0.00  0.00    +0.000 A 
ATOM      7  N   UNL     1     -45.007 -16.964 -22.893  0.00  0.00    +0.000 N 
ATOM      8  C   UNL     1     -44.070 -15.879 -23.014  0.00  0.00    +0.000 C 
ATOM      9  C   UNL     1     -43.379 -15.661 -24.174  0.00  0.00    +0.000 C 
ATOM     10  C   UNL     1     -42.355 -14.588 -24.221  0.00  0.00    +0.000 C 
ATOM     11  O   UNL     1     -41.650 -14.422 -25.252  0.00  0.00    +0.000 OA
ATOM     12  C   UNL     1     -42.155 -13.663 -23.058  0.00  0.00    +0.000 C 
ATOM     13  C   UNL     1     -42.529 -14.325 -21.733  0.00  0.00    +0.000 C 
ATOM     14  C   UNL     1     -42.558 -13.264 -20.655  0.00  0.00    +0.000 C 
ATOM     15  C   UNL     1     -41.492 -15.370 -21.349  0.00  0.00    +0.000 C 
ATOM     16  C   UNL     1     -43.917 -14.960 -21.831  0.00  0.00    +0.000 C 
ATOM     17  H   UNL     1     -46.525 -19.279 -23.292  0.00  0.00    +0.000 HD
ATOM     18  H   UNL     1     -45.525 -17.088 -22.065  0.00  0.00    +0.000 HD
ENDROOT
BRANCH   1  29
ATOM     19  C   UNL     1     -42.114 -16.660 -28.076  0.00  0.00    +0.000 C 
ATOM     20  C   UNL     1     -43.319 -15.806 -27.867  0.00  0.00    +0.000 A 
ATOM     21  N   UNL     1     -43.768 -15.054 -28.908  0.00  0.00    +0.000 NA
ATOM     22  C   UNL     1     -44.855 -14.252 -28.784  0.00  0.00    +0.000 A 
ATOM     23  C   UNL     1     -45.303 -13.487 -29.864  0.00  0.00    +0.000 A 
ATOM     24  C   UNL     1     -46.425 -12.664 -29.717  0.00  0.00    +0.000 A 
ATOM     25  C   UNL     1     -47.098 -12.606 -28.491  0.00  0.00    +0.000 A 
ATOM     26  C   UNL     1     -46.653 -13.371 -27.407  0.00  0.00    +0.000 A 
ATOM     27  C   UNL     1     -45.533 -14.194 -27.552  0.00  0.00    +0.000 A 
ATOM     28  N   UNL     1     -45.088 -14.942 -26.510  0.00  0.00    +0.000 NA
ATOM     29  C   UNL     1     -44.000 -15.752 -26.629  0.00  0.00    +0.000 A 
ENDBRANCH   1  29
BRANCH   3  30
ATOM     30  O   UNL     1     -44.526 -19.021 -27.224  0.00  0.00    +0.000 OA
ATOM     31  H   UNL     1     -43.643 -18.857 -27.489  0.00  0.00    +0.000 HD
ENDBRANCH   3  30
TORSDOF 2
ENDMDL
