MODEL 1
REMARK VINA RESULT:      -7.6      0.000      0.000
REMARK  Name = ZINC000067847368 ZINC67847368 MCULE-8338375840 MolPort-016-608-745 PubChem-50964388
REMARK  5 active torsions:
REMARK  status: ('A' for Active; 'I' for Inactive)
REMARK    1  A    between atoms: C_1  and  C_9
REMARK    2  A    between atoms: C_3  and  C_22
REMARK    3  A    between atoms: N_5  and  C_15
REMARK    4  A    between atoms: C_22  and  C_23
REMARK    5  A    between atoms: C_23  and  C_24
REMARK                            x       y       z     vdW  Elec       q    Type
REMARK                         _______ _______ _______ _____ _____    ______ ____
ROOT
ATOM      1  C   UNL     1     -46.485  -4.382 -29.714  0.00  0.00    +0.000 A 
ATOM      2  N   UNL     1     -47.108  -3.688 -28.739  0.00  0.00    +0.000 NA
ATOM      3  C   UNL     1     -47.122  -4.573 -27.721  0.00  0.00    +0.000 A 
ATOM      4  N   UNL     1     -46.554  -5.750 -28.041  0.00  0.00    +0.000 NA
ATOM      5  N   UNL     1     -46.145  -5.624 -29.291  0.00  0.00    +0.000 N 
ENDROOT
BRANCH   1   9
ATOM      6  C   UNL     1     -44.387  -1.136 -32.857  0.00  0.00    +0.000 C 
ATOM      7  C   UNL     1     -45.332  -2.254 -32.600  0.00  0.00    +0.000 A 
ATOM      8  C   UNL     1     -45.444  -2.789 -31.315  0.00  0.00    +0.000 A 
ATOM      9  C   UNL     1     -46.329  -3.849 -31.082  0.00  0.00    +0.000 A 
ATOM     10  C   UNL     1     -47.111  -4.327 -32.141  0.00  0.00    +0.000 A 
ATOM     11  C   UNL     1     -46.969  -3.768 -33.412  0.00  0.00    +0.000 A 
ATOM     12  O   UNL     1     -47.660  -4.201 -34.368  0.00  0.00    +0.000 OA
ATOM     13  N   UNL     1     -46.089  -2.751 -33.614  0.00  0.00    +0.000 N 
ATOM     14  H   UNL     1     -45.997  -2.367 -34.515  0.00  0.00    +0.000 HD
ENDBRANCH   1   9
BRANCH   5  15
ATOM     15  C   UNL     1     -45.382  -6.638 -29.964  0.00  0.00    +0.000 A 
ATOM     16  C   UNL     1     -46.042  -7.709 -30.584  0.00  0.00    +0.000 A 
ATOM     17  C   UNL     1     -45.310  -8.727 -31.202  0.00  0.00    +0.000 A 
ATOM     18  C   UNL     1     -46.019  -9.851 -31.867  0.00  0.00    +0.000 C 
ATOM     19  C   UNL     1     -43.913  -8.690 -31.191  0.00  0.00    +0.000 A 
ATOM     20  C   UNL     1     -43.247  -7.638 -30.557  0.00  0.00    +0.000 A 
ATOM     21  C   UNL     1     -43.979  -6.620 -29.939  0.00  0.00    +0.000 A 
ENDBRANCH   5  15
BRANCH   3  22
ATOM     22  C   UNL     1     -47.755  -4.299 -26.402  0.00  0.00    +0.000 C 
BRANCH  22  23
ATOM     23  C   UNL     1     -47.401  -2.896 -25.944  0.00  0.00    +0.000 C 
BRANCH  23  24
ATOM     24  C   UNL     1     -47.243  -2.852 -24.463  0.00  0.00    +0.000 A 
ATOM     25  C   UNL     1     -47.261  -1.619 -23.801  0.00  0.00    +0.000 A 
ATOM     26  C   UNL     1     -47.098  -1.565 -22.413  0.00  0.00    +0.000 A 
ATOM     27  C   UNL     1     -46.913  -2.744 -21.685  0.00  0.00    +0.000 A 
ATOM     28  C   UNL     1     -46.886  -3.977 -22.344  0.00  0.00    +0.000 A 
ATOM     29  C   UNL     1     -47.049  -4.032 -23.732  0.00  0.00    +0.000 A 
ENDBRANCH  23  24
ENDBRANCH  22  23
ENDBRANCH   3  22
TORSDOF 5
ENDMDL
MODEL 2
REMARK VINA RESULT:      -7.3      3.173      7.914
REMARK  Name = ZINC000067847368 ZINC67847368 MCULE-8338375840 MolPort-016-608-745 PubChem-50964388
REMARK  5 active torsions:
REMARK  status: ('A' for Active; 'I' for Inactive)
REMARK    1  A    between atoms: C_1  and  C_9
REMARK    2  A    between atoms: C_3  and  C_22
REMARK    3  A    between atoms: N_5  and  C_15
REMARK    4  A    between atoms: C_22  and  C_23
REMARK    5  A    between atoms: C_23  and  C_24
REMARK                            x       y       z     vdW  Elec       q    Type
REMARK                         _______ _______ _______ _____ _____    ______ ____
ROOT
ATOM      1  C   UNL     1     -46.570  -5.713 -27.783  0.00  0.00    +0.000 A 
ATOM      2  N   UNL     1     -46.659  -5.883 -29.119  0.00  0.00    +0.000 NA
ATOM      3  C   UNL     1     -47.294  -4.759 -29.510  0.00  0.00    +0.000 A 
ATOM      4  N   UNL     1     -47.595  -3.943 -28.483  0.00  0.00    +0.000 NA
ATOM      5  N   UNL     1     -47.129  -4.540 -27.400  0.00  0.00    +0.000 N 
ENDROOT
BRANCH   1   9
ATOM      6  C   UNL     1     -42.726  -7.719 -25.329  0.00  0.00    +0.000 C 
ATOM      7  C   UNL     1     -44.158  -7.747 -25.725  0.00  0.00    +0.000 A 
ATOM      8  C   UNL     1     -44.678  -6.732 -26.531  0.00  0.00    +0.000 A 
ATOM      9  C   UNL     1     -46.031  -6.760 -26.892  0.00  0.00    +0.000 A 
ATOM     10  C   UNL     1     -46.827  -7.830 -26.464  0.00  0.00    +0.000 A 
ATOM     11  C   UNL     1     -46.271  -8.825 -25.659  0.00  0.00    +0.000 A 
ATOM     12  O   UNL     1     -46.984  -9.782 -25.262  0.00  0.00    +0.000 OA
ATOM     13  N   UNL     1     -44.958  -8.764 -25.308  0.00  0.00    +0.000 N 
ATOM     14  H   UNL     1     -44.580  -9.471 -24.738  0.00  0.00    +0.000 HD
ENDBRANCH   1   9
BRANCH   5  15
ATOM     15  C   UNL     1     -47.157  -3.925 -26.102  0.00  0.00    +0.000 A 
ATOM     16  C   UNL     1     -47.167  -4.726 -24.952  0.00  0.00    +0.000 A 
ATOM     17  C   UNL     1     -47.241  -4.141 -23.684  0.00  0.00    +0.000 A 
ATOM     18  C   UNL     1     -47.238  -4.999 -22.471  0.00  0.00    +0.000 C 
ATOM     19  C   UNL     1     -47.322  -2.752 -23.558  0.00  0.00    +0.000 A 
ATOM     20  C   UNL     1     -47.335  -1.947 -24.700  0.00  0.00    +0.000 A 
ATOM     21  C   UNL     1     -47.260  -2.532 -25.968  0.00  0.00    +0.000 A 
ENDBRANCH   5  15
BRANCH   3  22
ATOM     22  C   UNL     1     -47.679  -4.481 -30.920  0.00  0.00    +0.000 C 
BRANCH  22  23
ATOM     23  C   UNL     1     -46.492  -4.725 -31.834  0.00  0.00    +0.000 C 
BRANCH  23  24
ATOM     24  C   UNL     1     -45.792  -3.446 -32.138  0.00  0.00    +0.000 A 
ATOM     25  C   UNL     1     -45.329  -3.202 -33.435  0.00  0.00    +0.000 A 
ATOM     26  C   UNL     1     -44.657  -2.011 -33.729  0.00  0.00    +0.000 A 
ATOM     27  C   UNL     1     -44.443  -1.064 -32.723  0.00  0.00    +0.000 A 
ATOM     28  C   UNL     1     -44.897  -1.308 -31.423  0.00  0.00    +0.000 A 
ATOM     29  C   UNL     1     -45.569  -2.499 -31.130  0.00  0.00    +0.000 A 
ENDBRANCH  23  24
ENDBRANCH  22  23
ENDBRANCH   3  22
TORSDOF 5
ENDMDL
MODEL 3
REMARK VINA RESULT:      -7.2      1.810      4.612
REMARK  Name = ZINC000067847368 ZINC67847368 MCULE-8338375840 MolPort-016-608-745 PubChem-50964388
REMARK  5 active torsions:
REMARK  status: ('A' for Active; 'I' for Inactive)
REMARK    1  A    between atoms: C_1  and  C_9
REMARK    2  A    between atoms: C_3  and  C_22
REMARK    3  A    between atoms: N_5  and  C_15
REMARK    4  A    between atoms: C_22  and  C_23
REMARK    5  A    between atoms: C_23  and  C_24
REMARK                            x       y       z     vdW  Elec       q    Type
REMARK                         _______ _______ _______ _____ _____    ______ ____
ROOT
ATOM      1  C   UNL     1     -45.815  -6.058 -29.564  0.00  0.00    +0.000 A 
ATOM      2  N   UNL     1     -46.087  -6.364 -28.278  0.00  0.00    +0.000 NA
ATOM      3  C   UNL     1     -46.602  -5.209 -27.810  0.00  0.00    +0.000 A 
ATOM      4  N   UNL     1     -46.640  -4.237 -28.740  0.00  0.00    +0.000 NA
ATOM      5  N   UNL     1     -46.153  -4.776 -29.844  0.00  0.00    +0.000 N 
ENDROOT
BRANCH   1   9
ATOM      6  C   UNL     1     -46.002  -9.852 -32.787  0.00  0.00    +0.000 C 
ATOM      7  C   UNL     1     -45.215  -8.859 -32.009  0.00  0.00    +0.000 A 
ATOM      8  C   UNL     1     -45.872  -7.938 -31.190  0.00  0.00    +0.000 A 
ATOM      9  C   UNL     1     -45.125  -7.000 -30.468  0.00  0.00    +0.000 A 
ATOM     10  C   UNL     1     -43.727  -7.029 -30.557  0.00  0.00    +0.000 A 
ATOM     11  C   UNL     1     -43.107  -7.964 -31.387  0.00  0.00    +0.000 A 
ATOM     12  O   UNL     1     -41.854  -7.987 -31.480  0.00  0.00    +0.000 OA
ATOM     13  N   UNL     1     -43.858  -8.852 -32.092  0.00  0.00    +0.000 N 
ATOM     14  H   UNL     1     -43.409  -9.505 -32.676  0.00  0.00    +0.000 HD
ENDBRANCH   1   9
BRANCH   5  15
ATOM     15  C   UNL     1     -46.131  -4.082 -31.102  0.00  0.00    +0.000 A 
ATOM     16  C   UNL     1     -45.241  -3.017 -31.294  0.00  0.00    +0.000 A 
ATOM     17  C   UNL     1     -45.242  -2.303 -32.497  0.00  0.00    +0.000 A 
ATOM     18  C   UNL     1     -44.286  -1.184 -32.695  0.00  0.00    +0.000 C 
ATOM     19  C   UNL     1     -46.144  -2.640 -33.509  0.00  0.00    +0.000 A 
ATOM     20  C   UNL     1     -47.050  -3.687 -33.318  0.00  0.00    +0.000 A 
ATOM     21  C   UNL     1     -47.049  -4.400 -32.116  0.00  0.00    +0.000 A 
ENDBRANCH   5  15
BRANCH   3  22
ATOM     22  C   UNL     1     -47.026  -5.010 -26.398  0.00  0.00    +0.000 C 
BRANCH  22  23
ATOM     23  C   UNL     1     -47.361  -3.548 -26.163  0.00  0.00    +0.000 C 
BRANCH  23  24
ATOM     24  C   UNL     1     -47.256  -3.212 -24.715  0.00  0.00    +0.000 A 
ATOM     25  C   UNL     1     -47.301  -1.874 -24.310  0.00  0.00    +0.000 A 
ATOM     26  C   UNL     1     -47.188  -1.546 -22.955  0.00  0.00    +0.000 A 
ATOM     27  C   UNL     1     -47.027  -2.557 -22.003  0.00  0.00    +0.000 A 
ATOM     28  C   UNL     1     -46.975  -3.896 -22.405  0.00  0.00    +0.000 A 
ATOM     29  C   UNL     1     -47.087  -4.224 -23.760  0.00  0.00    +0.000 A 
ENDBRANCH  23  24
ENDBRANCH  22  23
ENDBRANCH   3  22
TORSDOF 5
ENDMDL
