MODEL 1
REMARK VINA RESULT:      -6.7      0.000      0.000
REMARK  Name = ZINC000408607104 PubChem-125618484
REMARK  6 active torsions:
REMARK  status: ('A' for Active; 'I' for Inactive)
REMARK    1  A    between atoms: C_2  and  C_3
REMARK    2  A    between atoms: C_3  and  N_22
REMARK    3  A    between atoms: C_4  and  C_5
REMARK    4  A    between atoms: C_6  and  C_7
REMARK    5  A    between atoms: C_8  and  N_25
REMARK    6  A    between atoms: N_23  and  N_24
REMARK                            x       y       z     vdW  Elec       q    Type
REMARK                         _______ _______ _______ _____ _____    ______ ____
ROOT
ATOM      1  C   UNL     1     -46.178  -7.525 -27.585  0.00  0.00    +0.000 A 
ATOM      2  C   UNL     1     -45.937  -8.865 -27.266  0.00  0.00    +0.000 A 
ATOM      3  C   UNL     1     -46.212  -9.540 -28.440  0.00  0.00    +0.000 A 
ATOM      4  C   UNL     1     -46.095 -10.899 -28.723  0.00  0.00    +0.000 A 
ATOM      5  C   UNL     1     -46.378 -11.322 -30.033  0.00  0.00    +0.000 A 
ATOM      6  C   UNL     1     -46.748 -10.386 -31.023  0.00  0.00    +0.000 A 
ATOM      7  C   UNL     1     -46.854  -9.020 -30.709  0.00  0.00    +0.000 A 
ATOM      8  C   UNL     1     -46.596  -8.632 -29.393  0.00  0.00    +0.000 A 
ATOM      9  N   UNL     1     -46.598  -7.395 -28.868  0.00  0.00    +0.000 N 
ATOM     10 CL   UNL     1     -46.254 -13.018 -30.445  0.00  0.00    +0.000 Cl
ENDROOT
BRANCH   9  12
ATOM     11  C   UNL     1     -45.783  -5.346 -30.063  0.00  0.00    +0.000 C 
ATOM     12  N   UNL     1     -46.824  -6.179 -29.539  0.00  0.00    +0.000 NA
ATOM     13  O   UNL     1     -44.612  -5.796 -30.194  0.00  0.00    +0.000 OA
BRANCH  11  14
ATOM     14  C   UNL     1     -46.094  -3.982 -30.500  0.00  0.00    +0.000 C 
ATOM     15  N   UNL     1     -45.050  -3.134 -30.983  0.00  0.00    +0.000 NA
ATOM     16  O   UNL     1     -47.282  -3.560 -30.448  0.00  0.00    +0.000 OA
BRANCH  15  17
ATOM     17  C   UNL     1     -45.306  -1.774 -31.426  0.00  0.00    +0.000 C 
BRANCH  17  19
ATOM     18  C   UNL     1     -44.389  -1.843 -33.721  0.00  0.00    +0.000 C 
ATOM     19  C   UNL     1     -44.171  -1.315 -32.319  0.00  0.00    +0.000 C 
ENDBRANCH  17  19
ENDBRANCH  15  17
ENDBRANCH  11  14
ENDBRANCH   9  12
BRANCH   1  20
ATOM     20  C   UNL     1     -45.998  -6.409 -26.639  0.00  0.00    +0.000 C 
ATOM     21  N   UNL     1     -47.154  -5.752 -26.099  0.00  0.00    +0.000 NA
ATOM     22  O   UNL     1     -44.839  -6.039 -26.313  0.00  0.00    +0.000 OA
BRANCH  21  23
ATOM     23  C   UNL     1     -47.168  -4.657 -25.174  0.00  0.00    +0.000 A 
ATOM     24  C   UNL     1     -47.280  -3.325 -25.599  0.00  0.00    +0.000 A 
ATOM     25  C   UNL     1     -47.288  -2.285 -24.668  0.00  0.00    +0.000 A 
ATOM     26  C   UNL     1     -47.186  -2.562 -23.302  0.00  0.00    +0.000 A 
ATOM     27  C   UNL     1     -47.197  -1.429 -22.334  0.00  0.00    +0.000 C 
ATOM     28  C   UNL     1     -47.072  -3.895 -22.868  0.00  0.00    +0.000 A 
ATOM     29  C   UNL     1     -47.065  -4.931 -23.806  0.00  0.00    +0.000 A 
ATOM     30 CL   UNL     1     -46.940  -4.300 -21.164  0.00  0.00    +0.000 Cl
ENDBRANCH  21  23
ENDBRANCH   1  20
TORSDOF 6
ENDMDL
MODEL 2
REMARK VINA RESULT:      -6.6      1.913      6.994
REMARK  Name = ZINC000408607104 PubChem-125618484
REMARK  6 active torsions:
REMARK  status: ('A' for Active; 'I' for Inactive)
REMARK    1  A    between atoms: C_2  and  C_3
REMARK    2  A    between atoms: C_3  and  N_22
REMARK    3  A    between atoms: C_4  and  C_5
REMARK    4  A    between atoms: C_6  and  C_7
REMARK    5  A    between atoms: C_8  and  N_25
REMARK    6  A    between atoms: N_23  and  N_24
REMARK                            x       y       z     vdW  Elec       q    Type
REMARK                         _______ _______ _______ _____ _____    ______ ____
ROOT
ATOM      1  C   UNL     1     -46.673  -6.556 -26.930  0.00  0.00    +0.000 A 
ATOM      2  C   UNL     1     -46.677  -6.344 -25.548  0.00  0.00    +0.000 A 
ATOM      3  C   UNL     1     -46.879  -4.983 -25.422  0.00  0.00    +0.000 A 
ATOM      4  C   UNL     1     -47.020  -4.217 -24.267  0.00  0.00    +0.000 A 
ATOM      5  C   UNL     1     -47.286  -2.845 -24.420  0.00  0.00    +0.000 A 
ATOM      6  C   UNL     1     -47.423  -2.282 -25.707  0.00  0.00    +0.000 A 
ATOM      7  C   UNL     1     -47.279  -3.081 -26.855  0.00  0.00    +0.000 A 
ATOM      8  C   UNL     1     -46.985  -4.433 -26.673  0.00  0.00    +0.000 A 
ATOM      9  N   UNL     1     -46.838  -5.391 -27.605  0.00  0.00    +0.000 N 
ATOM     10 CL   UNL     1     -47.470  -1.832 -23.005  0.00  0.00    +0.000 Cl
ENDROOT
BRANCH   9  12
ATOM     11  C   UNL     1     -45.892  -5.156 -29.915  0.00  0.00    +0.000 C 
ATOM     12  N   UNL     1     -46.988  -5.263 -28.998  0.00  0.00    +0.000 NA
ATOM     13  O   UNL     1     -44.722  -5.449 -29.548  0.00  0.00    +0.000 OA
BRANCH  11  14
ATOM     14  C   UNL     1     -46.143  -4.756 -31.303  0.00  0.00    +0.000 C 
ATOM     15  N   UNL     1     -46.044  -3.380 -31.675  0.00  0.00    +0.000 NA
ATOM     16  O   UNL     1     -46.444  -5.627 -32.164  0.00  0.00    +0.000 OA
BRANCH  15  17
ATOM     17  C   UNL     1     -46.284  -2.932 -33.037  0.00  0.00    +0.000 C 
BRANCH  17  19
ATOM     18  C   UNL     1     -44.547  -1.282 -32.429  0.00  0.00    +0.000 C 
ATOM     19  C   UNL     1     -45.074  -2.170 -33.536  0.00  0.00    +0.000 C 
ENDBRANCH  17  19
ENDBRANCH  15  17
ENDBRANCH  11  14
ENDBRANCH   9  12
BRANCH   1  20
ATOM     20  C   UNL     1     -46.508  -7.879 -27.559  0.00  0.00    +0.000 C 
ATOM     21  N   UNL     1     -45.348  -8.665 -27.248  0.00  0.00    +0.000 NA
ATOM     22  O   UNL     1     -47.378  -8.309 -28.363  0.00  0.00    +0.000 OA
BRANCH  21  23
ATOM     23  C   UNL     1     -45.026  -9.965 -27.762  0.00  0.00    +0.000 A 
ATOM     24  C   UNL     1     -44.124 -10.142 -28.821  0.00  0.00    +0.000 A 
ATOM     25  C   UNL     1     -43.836 -11.423 -29.296  0.00  0.00    +0.000 A 
ATOM     26  C   UNL     1     -44.445 -12.542 -28.719  0.00  0.00    +0.000 A 
ATOM     27  C   UNL     1     -44.116 -13.895 -29.249  0.00  0.00    +0.000 C 
ATOM     28  C   UNL     1     -45.352 -12.371 -27.658  0.00  0.00    +0.000 A 
ATOM     29  C   UNL     1     -45.634 -11.085 -27.188  0.00  0.00    +0.000 A 
ATOM     30 CL   UNL     1     -46.146 -13.741 -26.897  0.00  0.00    +0.000 Cl
ENDBRANCH  21  23
ENDBRANCH   1  20
TORSDOF 6
ENDMDL
MODEL 3
REMARK VINA RESULT:      -6.5      8.942     13.600
REMARK  Name = ZINC000408607104 PubChem-125618484
REMARK  6 active torsions:
REMARK  status: ('A' for Active; 'I' for Inactive)
REMARK    1  A    between atoms: C_2  and  C_3
REMARK    2  A    between atoms: C_3  and  N_22
REMARK    3  A    between atoms: C_4  and  C_5
REMARK    4  A    between atoms: C_6  and  C_7
REMARK    5  A    between atoms: C_8  and  N_25
REMARK    6  A    between atoms: N_23  and  N_24
REMARK                            x       y       z     vdW  Elec       q    Type
REMARK                         _______ _______ _______ _____ _____    ______ ____
ROOT
ATOM      1  C   UNL     1     -45.036 -15.846 -26.253  0.00  0.00    +0.000 A 
ATOM      2  C   UNL     1     -44.575 -15.414 -27.501  0.00  0.00    +0.000 A 
ATOM      3  C   UNL     1     -45.089 -14.137 -27.620  0.00  0.00    +0.000 A 
ATOM      4  C   UNL     1     -44.912 -13.207 -28.642  0.00  0.00    +0.000 A 
ATOM      5  C   UNL     1     -45.499 -11.940 -28.484  0.00  0.00    +0.000 A 
ATOM      6  C   UNL     1     -46.224 -11.628 -27.314  0.00  0.00    +0.000 A 
ATOM      7  C   UNL     1     -46.383 -12.585 -26.297  0.00  0.00    +0.000 A 
ATOM      8  C   UNL     1     -45.815 -13.845 -26.494  0.00  0.00    +0.000 A 
ATOM      9  N   UNL     1     -45.804 -14.899 -25.659  0.00  0.00    +0.000 N 
ATOM     10 CL   UNL     1     -45.313 -10.733 -29.738  0.00  0.00    +0.000 Cl
ENDROOT
BRANCH   9  12
ATOM     11  C   UNL     1     -45.597 -14.645 -23.174  0.00  0.00    +0.000 C 
ATOM     12  N   UNL     1     -46.335 -14.969 -24.358  0.00  0.00    +0.000 NA
ATOM     13  O   UNL     1     -44.509 -14.012 -23.253  0.00  0.00    +0.000 OA
BRANCH  11  14
ATOM     14  C   UNL     1     -46.139 -15.004 -21.860  0.00  0.00    +0.000 C 
ATOM     15  N   UNL     1     -45.614 -16.132 -21.158  0.00  0.00    +0.000 NA
ATOM     16  O   UNL     1     -47.066 -14.315 -21.352  0.00  0.00    +0.000 OA
BRANCH  15  17
ATOM     17  C   UNL     1     -46.117 -16.531 -19.854  0.00  0.00    +0.000 C 
BRANCH  17  19
ATOM     18  C   UNL     1     -46.666 -18.940 -19.888  0.00  0.00    +0.000 C 
ATOM     19  C   UNL     1     -45.610 -17.919 -19.523  0.00  0.00    +0.000 C 
ENDBRANCH  17  19
ENDBRANCH  15  17
ENDBRANCH  11  14
ENDBRANCH   9  12
BRANCH   1  20
ATOM     20  C   UNL     1     -44.721 -17.163 -25.672  0.00  0.00    +0.000 C 
ATOM     21  N   UNL     1     -43.517 -17.325 -24.908  0.00  0.00    +0.000 NA
ATOM     22  O   UNL     1     -45.505 -18.134 -25.848  0.00  0.00    +0.000 OA
BRANCH  21  23
ATOM     23  C   UNL     1     -43.055 -18.525 -24.274  0.00  0.00    +0.000 A 
ATOM     24  C   UNL     1     -43.515 -18.922 -23.010  0.00  0.00    +0.000 A 
ATOM     25  C   UNL     1     -43.041 -20.097 -22.423  0.00  0.00    +0.000 A 
ATOM     26  C   UNL     1     -42.102 -20.889 -23.090  0.00  0.00    +0.000 A 
ATOM     27  C   UNL     1     -41.616 -22.136 -22.436  0.00  0.00    +0.000 C 
ATOM     28  C   UNL     1     -41.636 -20.496 -24.357  0.00  0.00    +0.000 A 
ATOM     29  C   UNL     1     -42.115 -19.319 -24.939  0.00  0.00    +0.000 A 
ATOM     30 CL   UNL     1     -40.455 -21.452 -25.241  0.00  0.00    +0.000 Cl
ENDBRANCH  21  23
ENDBRANCH   1  20
TORSDOF 6
ENDMDL
