MODEL 1
REMARK VINA RESULT:      -7.8      0.000      0.000
REMARK  Name = ZINC000020135468 ZINC20135468 PubChem-92655510
REMARK  3 active torsions:
REMARK  status: ('A' for Active; 'I' for Inactive)
REMARK    1  A    between atoms: C_2  and  O_19
REMARK    2  A    between atoms: C_6  and  C_8
REMARK    3  A    between atoms: C_10  and  C_13
REMARK                            x       y       z     vdW  Elec       q    Type
REMARK                         _______ _______ _______ _____ _____    ______ ____
ROOT
ATOM      1  C   UNL     1     -47.207  -3.403 -26.233  0.00  0.00    +0.000 C 
ATOM      2  C   UNL     1     -46.846  -4.860 -28.300  0.00  0.00    +0.000 C 
ATOM      3  C   UNL     1     -47.092  -4.052 -30.593  0.00  0.00    +0.000 C 
ATOM      4  C   UNL     1     -47.343  -5.490 -31.069  0.00  0.00    +0.000 C 
ATOM      5  C   UNL     1     -46.669  -6.475 -30.167  0.00  0.00    +0.000 C 
ATOM      6  O   UNL     1     -47.496  -2.379 -26.910  0.00  0.00    +0.000 OA
ATOM      7  O   UNL     1     -46.290  -7.587 -30.615  0.00  0.00    +0.000 OA
ATOM      8  N   UNL     1     -46.878  -4.638 -26.886  0.00  0.00    +0.000 NA
ATOM      9  N   UNL     1     -47.176  -3.914 -29.133  0.00  0.00    +0.000 NA
ATOM     10  N   UNL     1     -46.478  -6.152 -28.790  0.00  0.00    +0.000 NA
ENDROOT
BRANCH   3  11
ATOM     11  C   UNL     1     -45.798  -3.503 -31.110  0.00  0.00    +0.000 A 
ATOM     12  C   UNL     1     -44.688  -4.332 -31.333  0.00  0.00    +0.000 A 
ATOM     13  C   UNL     1     -43.488  -3.791 -31.806  0.00  0.00    +0.000 A 
ATOM     14  C   UNL     1     -43.391  -2.419 -32.055  0.00  0.00    +0.000 A 
ATOM     15  C   UNL     1     -44.493  -1.588 -31.829  0.00  0.00    +0.000 A 
ATOM     16  C   UNL     1     -45.693  -2.128 -31.357  0.00  0.00    +0.000 A 
ATOM     17  F   UNL     1     -44.398  -0.258 -32.069  0.00  0.00    +0.000 F 
ENDBRANCH   3  11
BRANCH   1  22
ATOM     18  C   UNL     1     -47.305  -2.014 -22.711  0.00  0.00    +0.000 A 
ATOM     19  C   UNL     1     -47.203  -3.188 -21.959  0.00  0.00    +0.000 A 
ATOM     20  C   UNL     1     -47.101  -4.427 -22.597  0.00  0.00    +0.000 A 
ATOM     21  C   UNL     1     -47.103  -4.498 -23.991  0.00  0.00    +0.000 A 
ATOM     22  C   UNL     1     -47.206  -3.331 -24.761  0.00  0.00    +0.000 A 
ATOM     23  C   UNL     1     -47.306  -2.091 -24.114  0.00  0.00    +0.000 A 
BRANCH  18  25
ATOM     24  C   UNL     1     -46.549  -0.430 -20.969  0.00  0.00    +0.000 C 
ATOM     25  O   UNL     1     -47.405  -0.790 -22.044  0.00  0.00    +0.000 OA
ENDBRANCH  18  25
ENDBRANCH   1  22
TORSDOF 3
ENDMDL
MODEL 2
REMARK VINA RESULT:      -7.4      1.327      2.069
REMARK  Name = ZINC000020135468 ZINC20135468 PubChem-92655510
REMARK  3 active torsions:
REMARK  status: ('A' for Active; 'I' for Inactive)
REMARK    1  A    between atoms: C_2  and  O_19
REMARK    2  A    between atoms: C_6  and  C_8
REMARK    3  A    between atoms: C_10  and  C_13
REMARK                            x       y       z     vdW  Elec       q    Type
REMARK                         _______ _______ _______ _____ _____    ______ ____
ROOT
ATOM      1  C   UNL     1     -47.140  -3.792 -26.487  0.00  0.00    +0.000 C 
ATOM      2  C   UNL     1     -46.677  -5.082 -28.643  0.00  0.00    +0.000 C 
ATOM      3  C   UNL     1     -47.000  -4.154 -30.879  0.00  0.00    +0.000 C 
ATOM      4  C   UNL     1     -47.138  -5.574 -31.445  0.00  0.00    +0.000 C 
ATOM      5  C   UNL     1     -46.383  -6.557 -30.608  0.00  0.00    +0.000 C 
ATOM      6  O   UNL     1     -47.514  -2.753 -27.098  0.00  0.00    +0.000 OA
ATOM      7  O   UNL     1     -45.919  -7.605 -31.125  0.00  0.00    +0.000 OA
ATOM      8  N   UNL     1     -46.717  -4.953 -27.217  0.00  0.00    +0.000 NA
ATOM      9  N   UNL     1     -47.085  -4.116 -29.414  0.00  0.00    +0.000 NA
ATOM     10  N   UNL     1     -46.210  -6.308 -29.214  0.00  0.00    +0.000 NA
ENDROOT
BRANCH   3  11
ATOM     11  C   UNL     1     -45.756  -3.471 -31.362  0.00  0.00    +0.000 A 
ATOM     12  C   UNL     1     -44.620  -4.203 -31.740  0.00  0.00    +0.000 A 
ATOM     13  C   UNL     1     -43.469  -3.540 -32.177  0.00  0.00    +0.000 A 
ATOM     14  C   UNL     1     -43.447  -2.143 -32.234  0.00  0.00    +0.000 A 
ATOM     15  C   UNL     1     -44.576  -1.411 -31.854  0.00  0.00    +0.000 A 
ATOM     16  C   UNL     1     -45.727  -2.073 -31.417  0.00  0.00    +0.000 A 
ATOM     17  F   UNL     1     -44.553  -0.057 -31.908  0.00  0.00    +0.000 F 
ENDBRANCH   3  11
BRANCH   1  22
ATOM     18  C   UNL     1     -46.926  -5.043 -22.919  0.00  0.00    +0.000 A 
ATOM     19  C   UNL     1     -47.128  -3.856 -22.208  0.00  0.00    +0.000 A 
ATOM     20  C   UNL     1     -47.334  -2.653 -22.889  0.00  0.00    +0.000 A 
ATOM     21  C   UNL     1     -47.338  -2.631 -24.285  0.00  0.00    +0.000 A 
ATOM     22  C   UNL     1     -47.136  -3.812 -25.014  0.00  0.00    +0.000 A 
ATOM     23  C   UNL     1     -46.931  -5.015 -24.323  0.00  0.00    +0.000 A 
BRANCH  18  25
ATOM     24  C   UNL     1     -47.754  -7.185 -22.001  0.00  0.00    +0.000 C 
ATOM     25  O   UNL     1     -46.723  -6.230 -22.210  0.00  0.00    +0.000 OA
ENDBRANCH  18  25
ENDBRANCH   1  22
TORSDOF 3
ENDMDL
MODEL 3
REMARK VINA RESULT:      -7.2      2.172      3.009
REMARK  Name = ZINC000020135468 ZINC20135468 PubChem-92655510
REMARK  3 active torsions:
REMARK  status: ('A' for Active; 'I' for Inactive)
REMARK    1  A    between atoms: C_2  and  O_19
REMARK    2  A    between atoms: C_6  and  C_8
REMARK    3  A    between atoms: C_10  and  C_13
REMARK                            x       y       z     vdW  Elec       q    Type
REMARK                         _______ _______ _______ _____ _____    ______ ____
ROOT
ATOM      1  C   UNL     1     -46.979  -4.194 -27.441  0.00  0.00    +0.000 C 
ATOM      2  C   UNL     1     -46.311  -5.059 -29.750  0.00  0.00    +0.000 C 
ATOM      3  C   UNL     1     -46.794  -3.881 -31.835  0.00  0.00    +0.000 C 
ATOM      4  C   UNL     1     -46.691  -5.206 -32.603  0.00  0.00    +0.000 C 
ATOM      5  C   UNL     1     -45.779  -6.161 -31.901  0.00  0.00    +0.000 C 
ATOM      6  O   UNL     1     -47.525  -3.155 -27.902  0.00  0.00    +0.000 OA
ATOM      7  O   UNL     1     -45.146  -7.029 -32.554  0.00  0.00    +0.000 OA
ATOM      8  N   UNL     1     -46.368  -5.148 -28.321  0.00  0.00    +0.000 NA
ATOM      9  N   UNL     1     -46.880  -4.072 -30.381  0.00  0.00    +0.000 NA
ATOM     10  N   UNL     1     -45.646  -6.092 -30.482  0.00  0.00    +0.000 NA
ENDROOT
BRANCH   3  11
ATOM     11  C   UNL     1     -45.685  -2.937 -32.187  0.00  0.00    +0.000 A 
ATOM     12  C   UNL     1     -45.494  -1.738 -31.483  0.00  0.00    +0.000 A 
ATOM     13  C   UNL     1     -44.457  -0.870 -31.839  0.00  0.00    +0.000 A 
ATOM     14  C   UNL     1     -43.609  -1.194 -32.903  0.00  0.00    +0.000 A 
ATOM     15  C   UNL     1     -43.800  -2.386 -33.609  0.00  0.00    +0.000 A 
ATOM     16  C   UNL     1     -44.836  -3.254 -33.254  0.00  0.00    +0.000 A 
ATOM     17  F   UNL     1     -42.979  -2.699 -34.641  0.00  0.00    +0.000 F 
ENDBRANCH   3  11
BRANCH   1  22
ATOM     18  C   UNL     1     -46.584  -5.913 -24.089  0.00  0.00    +0.000 A 
ATOM     19  C   UNL     1     -46.943  -4.881 -23.217  0.00  0.00    +0.000 A 
ATOM     20  C   UNL     1     -47.314  -3.630 -23.719  0.00  0.00    +0.000 A 
ATOM     21  C   UNL     1     -47.326  -3.406 -25.097  0.00  0.00    +0.000 A 
ATOM     22  C   UNL     1     -46.967  -4.429 -25.986  0.00  0.00    +0.000 A 
ATOM     23  C   UNL     1     -46.597  -5.681 -25.474  0.00  0.00    +0.000 A 
BRANCH  18  25
ATOM     24  C   UNL     1     -47.170  -8.138 -23.183  0.00  0.00    +0.000 C 
ATOM     25  O   UNL     1     -46.217  -7.152 -23.556  0.00  0.00    +0.000 OA
ENDBRANCH  18  25
ENDBRANCH   1  22
TORSDOF 3
ENDMDL
