MODEL 1
REMARK VINA RESULT:      -6.5      0.000      0.000
REMARK  Name = ZINC000096181682 ZINC96181682 PubChem-97457512
REMARK  3 active torsions:
REMARK  status: ('A' for Active; 'I' for Inactive)
REMARK    1  A    between atoms: C_5  and  N_20
REMARK    2  A    between atoms: C_7  and  C_8
REMARK    3  A    between atoms: C_9  and  C_13
REMARK                            x       y       z     vdW  Elec       q    Type
REMARK                         _______ _______ _______ _____ _____    ______ ____
ROOT
ATOM      1  C   UNL     1     -45.837  -3.444 -31.192  0.00  0.00    +0.000 C 
ATOM      2  C   UNL     1     -44.573  -3.965 -31.905  0.00  0.00    +0.000 C 
ATOM      3  C   UNL     1     -46.242  -4.899 -33.541  0.00  0.00    +0.000 C 
ATOM      4  C   UNL     1     -47.340  -4.257 -32.758  0.00  0.00    +0.000 C 
ATOM      5  C   UNL     1     -43.845  -5.619 -33.662  0.00  0.00    +0.000 C 
ATOM      6  N   UNL     1     -44.900  -4.826 -33.046  0.00  0.00    +0.000 N 
ATOM      7  O   UNL     1     -46.513  -5.547 -34.586  0.00  0.00    +0.000 OA
ATOM      8  O   UNL     1     -46.879  -3.101 -32.090  0.00  0.00    +0.000 OA
ENDROOT
BRANCH   2   9
ATOM      9  C   UNL     1     -43.703  -2.821 -32.334  0.00  0.00    +0.000 A 
ATOM     10  C   UNL     1     -42.314  -2.939 -32.215  0.00  0.00    +0.000 A 
ATOM     11  C   UNL     1     -41.484  -1.889 -32.616  0.00  0.00    +0.000 A 
ATOM     12  C   UNL     1     -42.039  -0.717 -33.138  0.00  0.00    +0.000 A 
ATOM     13  C   UNL     1     -43.426  -0.595 -33.262  0.00  0.00    +0.000 A 
ATOM     14  C   UNL     1     -44.258  -1.645 -32.861  0.00  0.00    +0.000 A 
ATOM     15  F   UNL     1     -41.233   0.301 -33.525  0.00  0.00    +0.000 F 
ENDBRANCH   2   9
BRANCH   1  16
ATOM     16  C   UNL     1     -46.288  -4.313 -30.053  0.00  0.00    +0.000 C 
ATOM     17  N   UNL     1     -45.615  -5.550 -29.781  0.00  0.00    +0.000 NA
ATOM     18  O   UNL     1     -47.280  -3.952 -29.367  0.00  0.00    +0.000 OA
BRANCH  17  23
ATOM     19  C   UNL     1     -45.398  -6.846 -25.023  0.00  0.00    +0.000 C 
ATOM     20  C   UNL     1     -45.846  -7.110 -26.416  0.00  0.00    +0.000 A 
ATOM     21  C   UNL     1     -46.589  -8.255 -26.706  0.00  0.00    +0.000 A 
ATOM     22  C   UNL     1     -46.999  -8.485 -28.020  0.00  0.00    +0.000 A 
ATOM     23  C   UNL     1     -45.950  -6.474 -28.740  0.00  0.00    +0.000 A 
ATOM     24  C   UNL     1     -45.523  -6.213 -27.435  0.00  0.00    +0.000 A 
ATOM     25  N   UNL     1     -46.674  -7.599 -29.001  0.00  0.00    +0.000 NA
ENDBRANCH  17  23
ENDBRANCH   1  16
TORSDOF 3
ENDMDL
MODEL 2
REMARK VINA RESULT:      -6.3     10.852     13.653
REMARK  Name = ZINC000096181682 ZINC96181682 PubChem-97457512
REMARK  3 active torsions:
REMARK  status: ('A' for Active; 'I' for Inactive)
REMARK    1  A    between atoms: C_5  and  N_20
REMARK    2  A    between atoms: C_7  and  C_8
REMARK    3  A    between atoms: C_9  and  C_13
REMARK                            x       y       z     vdW  Elec       q    Type
REMARK                         _______ _______ _______ _____ _____    ______ ____
ROOT
ATOM      1  C   UNL     1     -45.095 -16.906 -25.740  0.00  0.00    +0.000 C 
ATOM      2  C   UNL     1     -44.636 -15.438 -25.640  0.00  0.00    +0.000 C 
ATOM      3  C   UNL     1     -42.341 -16.452 -25.845  0.00  0.00    +0.000 C 
ATOM      4  C   UNL     1     -42.971 -17.798 -26.001  0.00  0.00    +0.000 C 
ATOM      5  C   UNL     1     -42.584 -14.044 -25.197  0.00  0.00    +0.000 C 
ATOM      6  N   UNL     1     -43.176 -15.321 -25.568  0.00  0.00    +0.000 N 
ATOM      7  O   UNL     1     -41.089 -16.336 -25.895  0.00  0.00    +0.000 OA
ATOM      8  O   UNL     1     -44.259 -17.694 -26.572  0.00  0.00    +0.000 OA
ENDROOT
BRANCH   2   9
ATOM      9  C   UNL     1     -45.178 -14.639 -26.786  0.00  0.00    +0.000 A 
ATOM     10  C   UNL     1     -46.256 -13.775 -26.566  0.00  0.00    +0.000 A 
ATOM     11  C   UNL     1     -46.773 -13.014 -27.618  0.00  0.00    +0.000 A 
ATOM     12  C   UNL     1     -46.212 -13.112 -28.895  0.00  0.00    +0.000 A 
ATOM     13  C   UNL     1     -45.132 -13.972 -29.120  0.00  0.00    +0.000 A 
ATOM     14  C   UNL     1     -44.615 -14.733 -28.068  0.00  0.00    +0.000 A 
ATOM     15  F   UNL     1     -46.714 -12.375 -29.914  0.00  0.00    +0.000 F 
ENDBRANCH   2   9
BRANCH   1  16
ATOM     16  C   UNL     1     -45.386 -17.541 -24.410  0.00  0.00    +0.000 C 
ATOM     17  N   UNL     1     -44.955 -16.904 -23.199  0.00  0.00    +0.000 NA
ATOM     18  O   UNL     1     -45.984 -18.648 -24.381  0.00  0.00    +0.000 OA
BRANCH  17  23
ATOM     19  C   UNL     1     -46.850 -16.315 -18.681  0.00  0.00    +0.000 C 
ATOM     20  C   UNL     1     -46.079 -17.120 -19.664  0.00  0.00    +0.000 A 
ATOM     21  C   UNL     1     -45.551 -18.357 -19.294  0.00  0.00    +0.000 A 
ATOM     22  C   UNL     1     -44.830 -19.097 -20.233  0.00  0.00    +0.000 A 
ATOM     23  C   UNL     1     -45.154 -17.404 -21.873  0.00  0.00    +0.000 A 
ATOM     24  C   UNL     1     -45.881 -16.637 -20.959  0.00  0.00    +0.000 A 
ATOM     25  N   UNL     1     -44.647 -18.610 -21.490  0.00  0.00    +0.000 NA
ENDBRANCH  17  23
ENDBRANCH   1  16
TORSDOF 3
ENDMDL
MODEL 3
REMARK VINA RESULT:      -6.2     15.118     17.465
REMARK  Name = ZINC000096181682 ZINC96181682 PubChem-97457512
REMARK  3 active torsions:
REMARK  status: ('A' for Active; 'I' for Inactive)
REMARK    1  A    between atoms: C_5  and  N_20
REMARK    2  A    between atoms: C_7  and  C_8
REMARK    3  A    between atoms: C_9  and  C_13
REMARK                            x       y       z     vdW  Elec       q    Type
REMARK                         _______ _______ _______ _____ _____    ______ ____
ROOT
ATOM      1  C   UNL     1     -45.839 -18.277 -20.433  0.00  0.00    +0.000 C 
ATOM      2  C   UNL     1     -44.501 -18.143 -21.186  0.00  0.00    +0.000 C 
ATOM      3  C   UNL     1     -43.620 -19.500 -19.259  0.00  0.00    +0.000 C 
ATOM      4  C   UNL     1     -45.007 -19.588 -18.712  0.00  0.00    +0.000 C 
ATOM      5  C   UNL     1     -42.018 -18.417 -20.851  0.00  0.00    +0.000 C 
ATOM      6  N   UNL     1     -43.380 -18.700 -20.422  0.00  0.00    +0.000 N 
ATOM      7  O   UNL     1     -42.672 -20.075 -18.661  0.00  0.00    +0.000 OA
ATOM      8  O   UNL     1     -45.967 -19.511 -19.745  0.00  0.00    +0.000 OA
ENDROOT
BRANCH   2   9
ATOM      9  C   UNL     1     -44.593 -18.783 -22.539  0.00  0.00    +0.000 A 
ATOM     10  C   UNL     1     -45.594 -18.368 -23.424  0.00  0.00    +0.000 A 
ATOM     11  C   UNL     1     -45.693 -18.946 -24.692  0.00  0.00    +0.000 A 
ATOM     12  C   UNL     1     -44.791 -19.939 -25.082  0.00  0.00    +0.000 A 
ATOM     13  C   UNL     1     -43.786 -20.355 -24.204  0.00  0.00    +0.000 A 
ATOM     14  C   UNL     1     -43.686 -19.778 -22.934  0.00  0.00    +0.000 A 
ATOM     15  F   UNL     1     -44.889 -20.498 -26.312  0.00  0.00    +0.000 F 
ENDBRANCH   2   9
BRANCH   1  16
ATOM     16  C   UNL     1     -46.181 -17.083 -19.590  0.00  0.00    +0.000 C 
ATOM     17  N   UNL     1     -45.342 -15.919 -19.617  0.00  0.00    +0.000 NA
ATOM     18  O   UNL     1     -47.192 -17.133 -18.841  0.00  0.00    +0.000 OA
BRANCH  17  23
ATOM     19  C   UNL     1     -47.003 -11.278 -19.367  0.00  0.00    +0.000 C 
ATOM     20  C   UNL     1     -46.354 -12.455 -18.731  0.00  0.00    +0.000 A 
ATOM     21  C   UNL     1     -45.944 -12.393 -17.399  0.00  0.00    +0.000 A 
ATOM     22  C   UNL     1     -45.338 -13.509 -16.821  0.00  0.00    +0.000 A 
ATOM     23  C   UNL     1     -45.544 -14.723 -18.857  0.00  0.00    +0.000 A 
ATOM     24  C   UNL     1     -46.155 -13.625 -19.467  0.00  0.00    +0.000 A 
ATOM     25  N   UNL     1     -45.151 -14.640 -17.555  0.00  0.00    +0.000 NA
ENDBRANCH  17  23
ENDBRANCH   1  16
TORSDOF 3
ENDMDL
