MODEL 1
REMARK VINA RESULT:      -5.6      0.000      0.000
REMARK  Name = ZINC000065211338 ZINC65211338 ChemDiv-P103-1195 MolPort-010-919-102 PubChem-53160942
REMARK  7 active torsions:
REMARK  status: ('A' for Active; 'I' for Inactive)
REMARK    1  A    between atoms: C_2  and  C_3
REMARK    2  A    between atoms: C_4  and  C_5
REMARK    3  A    between atoms: C_6  and  S_25
REMARK    4  A    between atoms: C_7  and  C_8
REMARK    5  A    between atoms: C_7  and  S_25
REMARK    6  A    between atoms: C_9  and  C_10
REMARK    7  A    between atoms: C_9  and  N_20
REMARK                            x       y       z     vdW  Elec       q    Type
REMARK                         _______ _______ _______ _____ _____    ______ ____
ROOT
ATOM      1  C   UNL     1     -45.102 -17.421 -24.697  0.00  0.00    +0.000 A 
ATOM      2  C   UNL     1     -44.111 -17.180 -25.685  0.00  0.00    +0.000 A 
ATOM      3  C   UNL     1     -44.219 -19.453 -26.394  0.00  0.00    +0.000 A 
ATOM      4  C   UNL     1     -45.189 -19.736 -25.439  0.00  0.00    +0.000 A 
ATOM      5  C   UNL     1     -45.627 -18.717 -24.595  0.00  0.00    +0.000 A 
ATOM      6  N   UNL     1     -43.708 -18.198 -26.494  0.00  0.00    +0.000 NA
ENDROOT
BRANCH   1   8
ATOM      7  C   UNL     1     -45.997 -15.294 -22.024  0.00  0.00    +0.000 A 
ATOM      8  C   UNL     1     -45.622 -16.394 -23.761  0.00  0.00    +0.000 A 
ATOM      9  N   UNL     1     -45.308 -16.370 -22.445  0.00  0.00    +0.000 NA
ATOM     10  N   UNL     1     -46.451 -15.385 -24.101  0.00  0.00    +0.000 NA
ATOM     11  O   UNL     1     -46.657 -14.728 -23.001  0.00  0.00    +0.000 OA
BRANCH   7  13
ATOM     12  C   UNL     1     -46.267 -15.959 -19.669  0.00  0.00    +0.000 C 
ATOM     13  C   UNL     1     -45.995 -14.807 -20.616  0.00  0.00    +0.000 C 
ENDBRANCH   7  13
ENDBRANCH   1   8
BRANCH   2  14
ATOM     14  S   UNL     1     -43.344 -15.578 -25.936  0.00  0.00    +0.000 S 
BRANCH  14  15
ATOM     15  C   UNL     1     -43.444 -15.728 -27.745  0.00  0.00    +0.000 C 
BRANCH  15  16
ATOM     16  C   UNL     1     -44.343 -14.678 -28.295  0.00  0.00    +0.000 C 
ATOM     17  N   UNL     1     -45.544 -14.335 -27.604  0.00  0.00    +0.000 NA
ATOM     18  O   UNL     1     -44.041 -14.107 -29.377  0.00  0.00    +0.000 OA
BRANCH  17  19
ATOM     19  C   UNL     1     -46.455 -13.316 -28.100  0.00  0.00    +0.000 C 
BRANCH  19  20
ATOM     20  C   UNL     1     -46.439 -12.142 -27.186  0.00  0.00    +0.000 A 
ATOM     21  C   UNL     1     -46.693 -10.860 -27.680  0.00  0.00    +0.000 A 
ATOM     22  C   UNL     1     -46.652  -9.763 -26.818  0.00  0.00    +0.000 A 
ATOM     23  C   UNL     1     -46.351  -9.967 -25.469  0.00  0.00    +0.000 A 
ATOM     24  C   UNL     1     -46.135 -12.304 -25.833  0.00  0.00    +0.000 A 
ATOM     25  N   UNL     1     -46.100 -11.222 -25.008  0.00  0.00    +0.000 NA
ENDBRANCH  19  20
ENDBRANCH  17  19
ENDBRANCH  15  16
ENDBRANCH  14  15
ENDBRANCH   2  14
TORSDOF 7
ENDMDL
MODEL 2
REMARK VINA RESULT:      -5.5      8.187     11.607
REMARK  Name = ZINC000065211338 ZINC65211338 ChemDiv-P103-1195 MolPort-010-919-102 PubChem-53160942
REMARK  7 active torsions:
REMARK  status: ('A' for Active; 'I' for Inactive)
REMARK    1  A    between atoms: C_2  and  C_3
REMARK    2  A    between atoms: C_4  and  C_5
REMARK    3  A    between atoms: C_6  and  S_25
REMARK    4  A    between atoms: C_7  and  C_8
REMARK    5  A    between atoms: C_7  and  S_25
REMARK    6  A    between atoms: C_9  and  C_10
REMARK    7  A    between atoms: C_9  and  N_20
REMARK                            x       y       z     vdW  Elec       q    Type
REMARK                         _______ _______ _______ _____ _____    ______ ____
ROOT
ATOM      1  C   UNL     1     -46.955  -4.465 -23.391  0.00  0.00    +0.000 A 
ATOM      2  C   UNL     1     -47.045  -4.110 -24.763  0.00  0.00    +0.000 A 
ATOM      3  C   UNL     1     -47.291  -1.811 -24.188  0.00  0.00    +0.000 A 
ATOM      4  C   UNL     1     -47.211  -2.111 -22.832  0.00  0.00    +0.000 A 
ATOM      5  C   UNL     1     -47.043  -3.438 -22.440  0.00  0.00    +0.000 A 
ATOM      6  N   UNL     1     -47.207  -2.804 -25.110  0.00  0.00    +0.000 NA
ENDROOT
BRANCH   1   8
ATOM      7  C   UNL     1     -45.917  -7.687 -22.385  0.00  0.00    +0.000 A 
ATOM      8  C   UNL     1     -46.777  -5.850 -22.891  0.00  0.00    +0.000 A 
ATOM      9  N   UNL     1     -45.590  -6.500 -22.926  0.00  0.00    +0.000 NA
ATOM     10  N   UNL     1     -47.754  -6.612 -22.357  0.00  0.00    +0.000 NA
ATOM     11  O   UNL     1     -47.182  -7.737 -22.055  0.00  0.00    +0.000 OA
BRANCH   7  13
ATOM     12  C   UNL     1     -45.466  -9.749 -21.118  0.00  0.00    +0.000 C 
ATOM     13  C   UNL     1     -44.948  -8.798 -22.180  0.00  0.00    +0.000 C 
ENDBRANCH   7  13
ENDBRANCH   1   8
BRANCH   2  14
ATOM     14  S   UNL     1     -46.953  -5.310 -26.095  0.00  0.00    +0.000 S 
BRANCH  14  15
ATOM     15  C   UNL     1     -47.503  -4.095 -27.330  0.00  0.00    +0.000 C 
BRANCH  15  16
ATOM     16  C   UNL     1     -47.227  -4.602 -28.701  0.00  0.00    +0.000 C 
ATOM     17  N   UNL     1     -47.327  -3.721 -29.820  0.00  0.00    +0.000 NA
ATOM     18  O   UNL     1     -46.919  -5.813 -28.865  0.00  0.00    +0.000 OA
BRANCH  17  19
ATOM     19  C   UNL     1     -47.066  -4.168 -31.178  0.00  0.00    +0.000 C 
BRANCH  19  20
ATOM     20  C   UNL     1     -46.165  -3.200 -31.861  0.00  0.00    +0.000 A 
ATOM     21  C   UNL     1     -45.365  -2.332 -31.114  0.00  0.00    +0.000 A 
ATOM     22  C   UNL     1     -44.542  -1.413 -31.765  0.00  0.00    +0.000 A 
ATOM     23  C   UNL     1     -44.535  -1.373 -33.162  0.00  0.00    +0.000 A 
ATOM     24  C   UNL     1     -46.136  -3.125 -33.256  0.00  0.00    +0.000 A 
ATOM     25  N   UNL     1     -45.327  -2.222 -33.873  0.00  0.00    +0.000 NA
ENDBRANCH  19  20
ENDBRANCH  17  19
ENDBRANCH  15  16
ENDBRANCH  14  15
ENDBRANCH   2  14
TORSDOF 7
ENDMDL
MODEL 3
REMARK VINA RESULT:      -5.5      7.834     11.512
REMARK  Name = ZINC000065211338 ZINC65211338 ChemDiv-P103-1195 MolPort-010-919-102 PubChem-53160942
REMARK  7 active torsions:
REMARK  status: ('A' for Active; 'I' for Inactive)
REMARK    1  A    between atoms: C_2  and  C_3
REMARK    2  A    between atoms: C_4  and  C_5
REMARK    3  A    between atoms: C_6  and  S_25
REMARK    4  A    between atoms: C_7  and  C_8
REMARK    5  A    between atoms: C_7  and  S_25
REMARK    6  A    between atoms: C_9  and  C_10
REMARK    7  A    between atoms: C_9  and  N_20
REMARK                            x       y       z     vdW  Elec       q    Type
REMARK                         _______ _______ _______ _____ _____    ______ ____
ROOT
ATOM      1  C   UNL     1     -46.524  -5.960 -26.982  0.00  0.00    +0.000 A 
ATOM      2  C   UNL     1     -46.610  -5.223 -28.192  0.00  0.00    +0.000 A 
ATOM      3  C   UNL     1     -47.381  -3.304 -27.007  0.00  0.00    +0.000 A 
ATOM      4  C   UNL     1     -47.316  -3.989 -25.798  0.00  0.00    +0.000 A 
ATOM      5  C   UNL     1     -46.887  -5.314 -25.791  0.00  0.00    +0.000 A 
ATOM      6  N   UNL     1     -47.031  -3.929 -28.161  0.00  0.00    +0.000 NA
ENDROOT
BRANCH   1   8
ATOM      7  C   UNL     1     -46.090  -9.461 -26.808  0.00  0.00    +0.000 A 
ATOM      8  C   UNL     1     -46.078  -7.372 -26.889  0.00  0.00    +0.000 A 
ATOM      9  N   UNL     1     -46.934  -8.420 -26.926  0.00  0.00    +0.000 NA
ATOM     10  N   UNL     1     -44.796  -7.772 -26.757  0.00  0.00    +0.000 NA
ATOM     11  O   UNL     1     -44.846  -9.068 -26.713  0.00  0.00    +0.000 OA
BRANCH   7  13
ATOM     12  C   UNL     1     -45.886 -11.616 -25.636  0.00  0.00    +0.000 C 
ATOM     13  C   UNL     1     -46.528 -10.884 -26.798  0.00  0.00    +0.000 C 
ENDBRANCH   7  13
ENDBRANCH   1   8
BRANCH   2  14
ATOM     14  S   UNL     1     -46.183  -5.911 -29.793  0.00  0.00    +0.000 S 
BRANCH  14  15
ATOM     15  C   UNL     1     -47.501  -4.981 -30.630  0.00  0.00    +0.000 C 
BRANCH  15  16
ATOM     16  C   UNL     1     -47.021  -4.491 -31.950  0.00  0.00    +0.000 C 
ATOM     17  N   UNL     1     -46.474  -3.178 -32.067  0.00  0.00    +0.000 NA
ATOM     18  O   UNL     1     -47.113  -5.240 -32.961  0.00  0.00    +0.000 OA
BRANCH  17  19
ATOM     19  C   UNL     1     -45.990  -2.655 -33.334  0.00  0.00    +0.000 C 
BRANCH  19  20
ATOM     20  C   UNL     1     -44.588  -2.181 -33.179  0.00  0.00    +0.000 A 
ATOM     21  C   UNL     1     -44.323  -0.948 -32.578  0.00  0.00    +0.000 A 
ATOM     22  C   UNL     1     -43.005  -0.503 -32.460  0.00  0.00    +0.000 A 
ATOM     23  C   UNL     1     -41.969  -1.301 -32.952  0.00  0.00    +0.000 A 
ATOM     24  C   UNL     1     -43.526  -2.946 -33.666  0.00  0.00    +0.000 A 
ATOM     25  N   UNL     1     -42.248  -2.495 -33.541  0.00  0.00    +0.000 NA
ENDBRANCH  19  20
ENDBRANCH  17  19
ENDBRANCH  15  16
ENDBRANCH  14  15
ENDBRANCH   2  14
TORSDOF 7
ENDMDL
