MODEL 1
REMARK VINA RESULT:      -6.2      0.000      0.000
REMARK  Name = ZINC000053230109 ZINC53230109 PubChem-94477473
REMARK  7 active torsions:
REMARK  status: ('A' for Active; 'I' for Inactive)
REMARK    1  A    between atoms: C_3  and  C_7
REMARK    2  A    between atoms: C_7  and  N_20
REMARK    3  A    between atoms: C_8  and  C_9
REMARK    4  A    between atoms: C_8  and  N_20
REMARK    5  A    between atoms: C_13  and  C_14
REMARK    6  A    between atoms: C_13  and  N_20
REMARK    7  A    between atoms: C_16  and  N_22
REMARK                            x       y       z     vdW  Elec       q    Type
REMARK                         _______ _______ _______ _____ _____    ______ ____
ROOT
ATOM      1  N   UNL     1     -46.032  -5.513 -27.643  0.00  0.00    +0.000 NA
ENDROOT
BRANCH   1   2
ATOM      2  C   UNL     1     -47.055  -5.626 -26.607  0.00  0.00    +0.000 C 
BRANCH   2   5
ATOM      3  C   UNL     1     -47.413  -1.956 -25.743  0.00  0.00    +0.000 A 
ATOM      4  C   UNL     1     -47.309  -3.140 -26.480  0.00  0.00    +0.000 A 
ATOM      5  C   UNL     1     -47.133  -4.362 -25.822  0.00  0.00    +0.000 A 
ATOM      6  C   UNL     1     -47.070  -4.399 -24.425  0.00  0.00    +0.000 A 
ATOM      7  C   UNL     1     -47.171  -3.215 -23.688  0.00  0.00    +0.000 A 
ATOM      8  C   UNL     1     -47.343  -1.994 -24.347  0.00  0.00    +0.000 A 
ATOM      9  F   UNL     1     -47.107  -3.251 -22.335  0.00  0.00    +0.000 F 
ENDBRANCH   2   5
ENDBRANCH   1   2
BRANCH   1  10
ATOM     10  C   UNL     1     -44.967  -6.471 -27.360  0.00  0.00    +0.000 C 
BRANCH  10  11
ATOM     11  C   UNL     1     -44.247  -6.851 -28.644  0.00  0.00    +0.000 C 
ATOM     12  C   UNL     1     -42.831  -6.317 -28.632  0.00  0.00    +0.000 C 
ATOM     13  C   UNL     1     -42.017  -7.437 -29.205  0.00  0.00    +0.000 C 
ATOM     14  C   UNL     1     -43.038  -8.506 -29.513  0.00  0.00    +0.000 C 
ATOM     15  O   UNL     1     -44.191  -8.247 -28.759  0.00  0.00    +0.000 OA
ENDBRANCH  10  11
ENDBRANCH   1  10
BRANCH   1  16
ATOM     16  C   UNL     1     -46.616  -5.773 -28.966  0.00  0.00    +0.000 C 
BRANCH  16  17
ATOM     17  C   UNL     1     -46.699  -4.564 -29.857  0.00  0.00    +0.000 C 
ATOM     18  C   UNL     1     -45.533  -3.066 -31.550  0.00  0.00    +0.000 C 
ATOM     19  N   UNL     1     -45.573  -4.184 -30.657  0.00  0.00    +0.000 NA
ATOM     20  N   UNL     1     -44.336  -2.805 -32.283  0.00  0.00    +0.000 NA
ATOM     21  O   UNL     1     -47.756  -3.880 -29.864  0.00  0.00    +0.000 OA
ATOM     22  O   UNL     1     -46.539  -2.319 -31.694  0.00  0.00    +0.000 OA
BRANCH  20  23
ATOM     23  C   UNL     1     -44.223  -1.689 -33.207  0.00  0.00    +0.000 C 
ATOM     24  C   UNL     1     -42.794  -1.189 -33.209  0.00  0.00    +0.000 C 
ATOM     25  C   UNL     1     -43.856  -0.438 -32.436  0.00  0.00    +0.000 C 
ENDBRANCH  20  23
ENDBRANCH  16  17
ENDBRANCH   1  16
TORSDOF 7
ENDMDL
MODEL 2
REMARK VINA RESULT:      -6.1      1.572      2.046
REMARK  Name = ZINC000053230109 ZINC53230109 PubChem-94477473
REMARK  7 active torsions:
REMARK  status: ('A' for Active; 'I' for Inactive)
REMARK    1  A    between atoms: C_3  and  C_7
REMARK    2  A    between atoms: C_7  and  N_20
REMARK    3  A    between atoms: C_8  and  C_9
REMARK    4  A    between atoms: C_8  and  N_20
REMARK    5  A    between atoms: C_13  and  C_14
REMARK    6  A    between atoms: C_13  and  N_20
REMARK    7  A    between atoms: C_16  and  N_22
REMARK                            x       y       z     vdW  Elec       q    Type
REMARK                         _______ _______ _______ _____ _____    ______ ____
ROOT
ATOM      1  N   UNL     1     -45.811  -5.720 -28.263  0.00  0.00    +0.000 NA
ENDROOT
BRANCH   1   2
ATOM      2  C   UNL     1     -46.985  -5.962 -27.428  0.00  0.00    +0.000 C 
BRANCH   2   5
ATOM      3  C   UNL     1     -47.038  -4.313 -24.019  0.00  0.00    +0.000 A 
ATOM      4  C   UNL     1     -46.979  -5.290 -25.017  0.00  0.00    +0.000 A 
ATOM      5  C   UNL     1     -47.080  -4.923 -26.363  0.00  0.00    +0.000 A 
ATOM      6  C   UNL     1     -47.230  -3.576 -26.709  0.00  0.00    +0.000 A 
ATOM      7  C   UNL     1     -47.291  -2.599 -25.711  0.00  0.00    +0.000 A 
ATOM      8  C   UNL     1     -47.195  -2.968 -24.366  0.00  0.00    +0.000 A 
ATOM      9  F   UNL     1     -47.439  -1.295 -26.047  0.00  0.00    +0.000 F 
ENDBRANCH   2   5
ENDBRANCH   1   2
BRANCH   1  10
ATOM     10  C   UNL     1     -44.874  -6.825 -28.092  0.00  0.00    +0.000 C 
BRANCH  10  11
ATOM     11  C   UNL     1     -43.833  -6.475 -27.041  0.00  0.00    +0.000 C 
ATOM     12  C   UNL     1     -43.614  -7.646 -26.106  0.00  0.00    +0.000 C 
ATOM     13  C   UNL     1     -42.130  -7.674 -25.904  0.00  0.00    +0.000 C 
ATOM     14  C   UNL     1     -41.630  -6.508 -26.724  0.00  0.00    +0.000 C 
ATOM     15  O   UNL     1     -42.615  -6.175 -27.664  0.00  0.00    +0.000 OA
ENDBRANCH  10  11
ENDBRANCH   1  10
BRANCH   1  16
ATOM     16  C   UNL     1     -46.206  -5.598 -29.673  0.00  0.00    +0.000 C 
BRANCH  16  17
ATOM     17  C   UNL     1     -46.171  -4.193 -30.210  0.00  0.00    +0.000 C 
ATOM     18  C   UNL     1     -44.812  -2.365 -31.342  0.00  0.00    +0.000 C 
ATOM     19  N   UNL     1     -44.967  -3.676 -30.789  0.00  0.00    +0.000 NA
ATOM     20  N   UNL     1     -43.546  -1.986 -31.884  0.00  0.00    +0.000 NA
ATOM     21  O   UNL     1     -47.201  -3.474 -30.112  0.00  0.00    +0.000 OA
ATOM     22  O   UNL     1     -45.775  -1.552 -31.356  0.00  0.00    +0.000 OA
BRANCH  20  23
ATOM     23  C   UNL     1     -43.315  -0.673 -32.461  0.00  0.00    +0.000 C 
ATOM     24  C   UNL     1     -42.229  -0.775 -33.511  0.00  0.00    +0.000 C 
ATOM     25  C   UNL     1     -41.904  -0.226 -32.138  0.00  0.00    +0.000 C 
ENDBRANCH  20  23
ENDBRANCH  16  17
ENDBRANCH   1  16
TORSDOF 7
ENDMDL
MODEL 3
REMARK VINA RESULT:      -6.1      3.927      7.700
REMARK  Name = ZINC000053230109 ZINC53230109 PubChem-94477473
REMARK  7 active torsions:
REMARK  status: ('A' for Active; 'I' for Inactive)
REMARK    1  A    between atoms: C_3  and  C_7
REMARK    2  A    between atoms: C_7  and  N_20
REMARK    3  A    between atoms: C_8  and  C_9
REMARK    4  A    between atoms: C_8  and  N_20
REMARK    5  A    between atoms: C_13  and  C_14
REMARK    6  A    between atoms: C_13  and  N_20
REMARK    7  A    between atoms: C_16  and  N_22
REMARK                            x       y       z     vdW  Elec       q    Type
REMARK                         _______ _______ _______ _____ _____    ______ ____
ROOT
ATOM      1  N   UNL     1     -46.220  -4.908 -31.211  0.00  0.00    +0.000 NA
ENDROOT
BRANCH   1   2
ATOM      2  C   UNL     1     -46.721  -3.623 -31.691  0.00  0.00    +0.000 C 
BRANCH   2   5
ATOM      3  C   UNL     1     -44.265  -0.763 -32.051  0.00  0.00    +0.000 A 
ATOM      4  C   UNL     1     -45.342  -1.537 -31.608  0.00  0.00    +0.000 A 
ATOM      5  C   UNL     1     -45.593  -2.785 -32.187  0.00  0.00    +0.000 A 
ATOM      6  C   UNL     1     -44.758  -3.263 -33.203  0.00  0.00    +0.000 A 
ATOM      7  C   UNL     1     -43.683  -2.488 -33.648  0.00  0.00    +0.000 A 
ATOM      8  C   UNL     1     -43.436  -1.238 -33.072  0.00  0.00    +0.000 A 
ATOM      9  F   UNL     1     -42.877  -2.950 -34.634  0.00  0.00    +0.000 F 
ENDBRANCH   2   5
ENDBRANCH   1   2
BRANCH   1  10
ATOM     10  C   UNL     1     -45.680  -4.731 -29.867  0.00  0.00    +0.000 C 
BRANCH  10  11
ATOM     11  C   UNL     1     -46.791  -4.833 -28.835  0.00  0.00    +0.000 C 
ATOM     12  C   UNL     1     -46.344  -5.675 -27.659  0.00  0.00    +0.000 C 
ATOM     13  C   UNL     1     -46.875  -4.941 -26.466  0.00  0.00    +0.000 C 
ATOM     14  C   UNL     1     -47.595  -3.755 -27.061  0.00  0.00    +0.000 C 
ATOM     15  O   UNL     1     -47.116  -3.554 -28.363  0.00  0.00    +0.000 OA
ENDBRANCH  10  11
ENDBRANCH   1  10
BRANCH   1  16
ATOM     16  C   UNL     1     -47.300  -5.905 -31.201  0.00  0.00    +0.000 C 
BRANCH  16  17
ATOM     17  C   UNL     1     -46.855  -7.308 -31.512  0.00  0.00    +0.000 C 
ATOM     18  C   UNL     1     -46.666  -9.719 -30.727  0.00  0.00    +0.000 C 
ATOM     19  N   UNL     1     -47.036  -8.349 -30.545  0.00  0.00    +0.000 NA
ATOM     20  N   UNL     1     -46.904 -10.649 -29.669  0.00  0.00    +0.000 NA
ATOM     21  O   UNL     1     -46.296  -7.542 -32.616  0.00  0.00    +0.000 OA
ATOM     22  O   UNL     1     -46.138 -10.108 -31.804  0.00  0.00    +0.000 OA
BRANCH  20  23
ATOM     23  C   UNL     1     -46.555 -12.055 -29.782  0.00  0.00    +0.000 C 
ATOM     24  C   UNL     1     -47.110 -12.803 -28.588  0.00  0.00    +0.000 C 
ATOM     25  C   UNL     1     -45.641 -12.437 -28.636  0.00  0.00    +0.000 C 
ENDBRANCH  20  23
ENDBRANCH  16  17
ENDBRANCH   1  16
TORSDOF 7
ENDMDL
