MODEL 1
REMARK VINA RESULT:      -7.1      0.000      0.000
REMARK  Name = ZINC000006817944 PubChem-92315719
REMARK  5 active torsions:
REMARK  status: ('A' for Active; 'I' for Inactive)
REMARK    1  A    between atoms: C_2  and  O_21
REMARK    2  A    between atoms: C_5  and  C_8
REMARK    3  A    between atoms: C_12  and  C_13
REMARK    4  A    between atoms: C_15  and  O_25
REMARK    5  A    between atoms: C_16  and  O_24
REMARK                            x       y       z     vdW  Elec       q    Type
REMARK                         _______ _______ _______ _____ _____    ______ ____
ROOT
ATOM      1  C   UNL     1     -47.174  -3.985 -31.629  0.00  0.00    +0.000 C 
ATOM      2  C   UNL     1     -47.064  -5.328 -32.367  0.00  0.00    +0.000 C 
ATOM      3  C   UNL     1     -46.099  -6.239 -31.680  0.00  0.00    +0.000 C 
ATOM      4  C   UNL     1     -46.575  -5.101 -29.536  0.00  0.00    +0.000 C 
ATOM      5  C   UNL     1     -47.160  -4.185 -27.223  0.00  0.00    +0.000 C 
ATOM      6  O   UNL     1     -45.464  -7.103 -32.338  0.00  0.00    +0.000 OA
ATOM      7  O   UNL     1     -47.755  -3.174 -27.688  0.00  0.00    +0.000 OA
ATOM      8  N   UNL     1     -45.921  -6.139 -30.269  0.00  0.00    +0.000 NA
ATOM      9  N   UNL     1     -47.179  -4.134 -30.168  0.00  0.00    +0.000 NA
ATOM     10  N   UNL     1     -46.566  -5.150 -28.105  0.00  0.00    +0.000 NA
ENDROOT
BRANCH   1  14
ATOM     11  C   UNL     1     -44.130  -1.190 -32.851  0.00  0.00    +0.000 A 
ATOM     12  C   UNL     1     -44.612  -2.137 -33.761  0.00  0.00    +0.000 A 
ATOM     13  C   UNL     1     -45.598  -3.050 -33.374  0.00  0.00    +0.000 A 
ATOM     14  C   UNL     1     -46.111  -3.024 -32.069  0.00  0.00    +0.000 A 
ATOM     15  C   UNL     1     -45.632  -2.077 -31.158  0.00  0.00    +0.000 A 
ATOM     16  C   UNL     1     -44.647  -1.164 -31.545  0.00  0.00    +0.000 A 
BRANCH  11  18
ATOM     17  C   UNL     1     -41.757  -0.529 -33.070  0.00  0.00    +0.000 C 
ATOM     18  O   UNL     1     -43.144  -0.292 -33.268  0.00  0.00    +0.000 OA
ENDBRANCH  11  18
ENDBRANCH   1  14
BRANCH   5  19
ATOM     19  C   UNL     1     -47.072  -4.376 -25.765  0.00  0.00    +0.000 A 
ATOM     20  C   UNL     1     -46.796  -5.641 -25.233  0.00  0.00    +0.000 A 
ATOM     21  C   UNL     1     -46.709  -5.835 -23.844  0.00  0.00    +0.000 A 
ATOM     22  C   UNL     1     -46.903  -4.747 -22.979  0.00  0.00    +0.000 A 
ATOM     23  C   UNL     1     -47.180  -3.479 -23.514  0.00  0.00    +0.000 A 
ATOM     24  C   UNL     1     -47.263  -3.295 -24.895  0.00  0.00    +0.000 A 
BRANCH  22  26
ATOM     25  C   UNL     1     -46.749  -3.876 -20.666  0.00  0.00    +0.000 C 
ATOM     26  O   UNL     1     -46.816  -4.948 -21.597  0.00  0.00    +0.000 OA
ENDBRANCH  22  26
BRANCH  21  28
ATOM     27  C   UNL     1     -46.001  -8.194 -24.098  0.00  0.00    +0.000 C 
ATOM     28  O   UNL     1     -46.434  -7.096 -23.305  0.00  0.00    +0.000 OA
ENDBRANCH  21  28
ENDBRANCH   5  19
TORSDOF 5
ENDMDL
MODEL 2
REMARK VINA RESULT:      -6.6      1.509      2.043
REMARK  Name = ZINC000006817944 PubChem-92315719
REMARK  5 active torsions:
REMARK  status: ('A' for Active; 'I' for Inactive)
REMARK    1  A    between atoms: C_2  and  O_21
REMARK    2  A    between atoms: C_5  and  C_8
REMARK    3  A    between atoms: C_12  and  C_13
REMARK    4  A    between atoms: C_15  and  O_25
REMARK    5  A    between atoms: C_16  and  O_24
REMARK                            x       y       z     vdW  Elec       q    Type
REMARK                         _______ _______ _______ _____ _____    ______ ____
ROOT
ATOM      1  C   UNL     1     -46.537  -3.096 -32.528  0.00  0.00    +0.000 C 
ATOM      2  C   UNL     1     -46.716  -4.139 -33.640  0.00  0.00    +0.000 C 
ATOM      3  C   UNL     1     -46.019  -5.415 -33.294  0.00  0.00    +0.000 C 
ATOM      4  C   UNL     1     -46.300  -4.899 -30.891  0.00  0.00    +0.000 C 
ATOM      5  C   UNL     1     -46.746  -4.612 -28.392  0.00  0.00    +0.000 C 
ATOM      6  O   UNL     1     -45.579  -6.165 -34.203  0.00  0.00    +0.000 OA
ATOM      7  O   UNL     1     -47.069  -3.398 -28.509  0.00  0.00    +0.000 OA
ATOM      8  N   UNL     1     -45.880  -5.791 -31.925  0.00  0.00    +0.000 NA
ATOM      9  N   UNL     1     -46.635  -3.673 -31.181  0.00  0.00    +0.000 NA
ATOM     10  N   UNL     1     -46.360  -5.377 -29.543  0.00  0.00    +0.000 NA
ENDROOT
BRANCH   1  14
ATOM     11  C   UNL     1     -42.848  -0.925 -33.021  0.00  0.00    +0.000 A 
ATOM     12  C   UNL     1     -43.818  -0.456 -32.129  0.00  0.00    +0.000 A 
ATOM     13  C   UNL     1     -45.019  -1.152 -31.963  0.00  0.00    +0.000 A 
ATOM     14  C   UNL     1     -45.262  -2.325 -32.692  0.00  0.00    +0.000 A 
ATOM     15  C   UNL     1     -44.292  -2.797 -33.582  0.00  0.00    +0.000 A 
ATOM     16  C   UNL     1     -43.091  -2.102 -33.747  0.00  0.00    +0.000 A 
BRANCH  11  18
ATOM     17  C   UNL     1     -40.729  -0.039 -32.102  0.00  0.00    +0.000 C 
ATOM     18  O   UNL     1     -41.657  -0.207 -33.165  0.00  0.00    +0.000 OA
ENDBRANCH  11  18
ENDBRANCH   1  14
BRANCH   5  19
ATOM     19  C   UNL     1     -46.764  -5.249 -27.063  0.00  0.00    +0.000 A 
ATOM     20  C   UNL     1     -46.371  -6.584 -26.913  0.00  0.00    +0.000 A 
ATOM     21  C   UNL     1     -46.383  -7.202 -25.651  0.00  0.00    +0.000 A 
ATOM     22  C   UNL     1     -46.795  -6.472 -24.526  0.00  0.00    +0.000 A 
ATOM     23  C   UNL     1     -47.189  -5.132 -24.677  0.00  0.00    +0.000 A 
ATOM     24  C   UNL     1     -47.173  -4.526 -25.935  0.00  0.00    +0.000 A 
BRANCH  22  26
ATOM     25  C   UNL     1     -45.815  -6.847 -22.284  0.00  0.00    +0.000 C 
ATOM     26  O   UNL     1     -46.805  -7.093 -23.273  0.00  0.00    +0.000 OA
ENDBRANCH  22  26
BRANCH  21  28
ATOM     27  C   UNL     1     -46.816  -9.630 -25.876  0.00  0.00    +0.000 C 
ATOM     28  O   UNL     1     -45.992  -8.536 -25.494  0.00  0.00    +0.000 OA
ENDBRANCH  21  28
ENDBRANCH   5  19
TORSDOF 5
ENDMDL
MODEL 3
REMARK VINA RESULT:      -6.5      3.883      4.885
REMARK  Name = ZINC000006817944 PubChem-92315719
REMARK  5 active torsions:
REMARK  status: ('A' for Active; 'I' for Inactive)
REMARK    1  A    between atoms: C_2  and  O_21
REMARK    2  A    between atoms: C_5  and  C_8
REMARK    3  A    between atoms: C_12  and  C_13
REMARK    4  A    between atoms: C_15  and  O_25
REMARK    5  A    between atoms: C_16  and  O_24
REMARK                            x       y       z     vdW  Elec       q    Type
REMARK                         _______ _______ _______ _____ _____    ______ ____
ROOT
ATOM      1  C   UNL     1     -46.820  -4.215 -32.715  0.00  0.00    +0.000 C 
ATOM      2  C   UNL     1     -47.175  -4.608 -34.156  0.00  0.00    +0.000 C 
ATOM      3  C   UNL     1     -46.596  -5.940 -34.506  0.00  0.00    +0.000 C 
ATOM      4  C   UNL     1     -46.675  -6.584 -32.118  0.00  0.00    +0.000 C 
ATOM      5  C   UNL     1     -46.934  -7.464 -29.734  0.00  0.00    +0.000 C 
ATOM      6  O   UNL     1     -46.294  -6.208 -35.698  0.00  0.00    +0.000 OA
ATOM      7  O   UNL     1     -47.134  -6.317 -29.249  0.00  0.00    +0.000 OA
ATOM      8  N   UNL     1     -46.414  -6.918 -33.484  0.00  0.00    +0.000 NA
ATOM      9  N   UNL     1     -46.896  -5.345 -31.779  0.00  0.00    +0.000 NA
ATOM     10  N   UNL     1     -46.702  -7.630 -31.141  0.00  0.00    +0.000 NA
ENDROOT
BRANCH   1  14
ATOM     11  C   UNL     1     -42.988  -2.252 -32.539  0.00  0.00    +0.000 A 
ATOM     12  C   UNL     1     -43.208  -3.419 -31.800  0.00  0.00    +0.000 A 
ATOM     13  C   UNL     1     -44.448  -4.062 -31.848  0.00  0.00    +0.000 A 
ATOM     14  C   UNL     1     -45.484  -3.542 -32.638  0.00  0.00    +0.000 A 
ATOM     15  C   UNL     1     -45.265  -2.376 -33.380  0.00  0.00    +0.000 A 
ATOM     16  C   UNL     1     -44.025  -1.734 -33.332  0.00  0.00    +0.000 A 
BRANCH  11  18
ATOM     17  C   UNL     1     -41.581  -0.254 -32.158  0.00  0.00    +0.000 C 
ATOM     18  O   UNL     1     -41.738  -1.631 -32.470  0.00  0.00    +0.000 OA
ENDBRANCH  11  18
ENDBRANCH   1  14
BRANCH   5  19
ATOM     19  C   UNL     1     -46.938  -8.643 -28.850  0.00  0.00    +0.000 A 
ATOM     20  C   UNL     1     -46.892  -9.933 -29.392  0.00  0.00    +0.000 A 
ATOM     21  C   UNL     1     -46.895 -11.066 -28.560  0.00  0.00    +0.000 A 
ATOM     22  C   UNL     1     -46.944 -10.901 -27.167  0.00  0.00    +0.000 A 
ATOM     23  C   UNL     1     -46.989  -9.606 -26.624  0.00  0.00    +0.000 A 
ATOM     24  C   UNL     1     -46.985  -8.488 -27.459  0.00  0.00    +0.000 A 
BRANCH  22  26
ATOM     25  C   UNL     1     -45.776 -12.517 -25.699  0.00  0.00    +0.000 C 
ATOM     26  O   UNL     1     -46.946 -12.032 -26.344  0.00  0.00    +0.000 OA
ENDBRANCH  22  26
BRANCH  21  28
ATOM     27  C   UNL     1     -46.086 -12.687 -30.247  0.00  0.00    +0.000 C 
ATOM     28  O   UNL     1     -46.850 -12.357 -29.094  0.00  0.00    +0.000 OA
ENDBRANCH  21  28
ENDBRANCH   5  19
TORSDOF 5
ENDMDL
