MODEL 1
REMARK VINA RESULT:      -6.3      0.000      0.000
REMARK  Name = ZINC000011118204 ZINC11118204 ChemDiv-D289-0016 MCULE-3876804959 MolPort-006-798-638 PubChem-17200660
REMARK  6 active torsions:
REMARK  status: ('A' for Active; 'I' for Inactive)
REMARK    1  A    between atoms: C_2  and  C_3
REMARK    2  A    between atoms: C_7  and  C_8
REMARK    3  A    between atoms: C_7  and  N_20
REMARK    4  A    between atoms: C_9  and  C_10
REMARK    5  A    between atoms: C_9  and  N_21
REMARK    6  A    between atoms: C_10  and  O_23
REMARK                            x       y       z     vdW  Elec       q    Type
REMARK                         _______ _______ _______ _____ _____    ______ ____
ROOT
ATOM      1  C   UNL     1     -47.326  -2.794 -24.606  0.00  0.00    +0.000 A 
ATOM      2  C   UNL     1     -47.613  -2.170 -25.816  0.00  0.00    +0.000 A 
ATOM      3  C   UNL     1     -47.575  -2.900 -27.001  0.00  0.00    +0.000 A 
ATOM      4  C   UNL     1     -47.253  -4.268 -27.006  0.00  0.00    +0.000 A 
ATOM      5  C   UNL     1     -46.375  -7.177 -26.785  0.00  0.00    +0.000 A 
ATOM      6  C   UNL     1     -46.628  -6.369 -25.658  0.00  0.00    +0.000 A 
ATOM      7  C   UNL     1     -46.544  -6.962 -24.384  0.00  0.00    +0.000 A 
ATOM      8  C   UNL     1     -46.224  -8.313 -24.235  0.00  0.00    +0.000 A 
ATOM      9  C   UNL     1     -45.978  -9.098 -25.360  0.00  0.00    +0.000 A 
ATOM     10  C   UNL     1     -46.053  -8.530 -26.633  0.00  0.00    +0.000 A 
ATOM     11  C   UNL     1     -46.964  -4.916 -25.771  0.00  0.00    +0.000 A 
ATOM     12  C   UNL     1     -47.013  -4.154 -24.587  0.00  0.00    +0.000 A 
ATOM     13  N   UNL     1     -47.231  -4.974 -28.262  0.00  0.00    +0.000 N 
ATOM     14  O   UNL     1     -45.067  -6.331 -28.943  0.00  0.00    +0.000 OA
ATOM     15  O   UNL     1     -47.259  -7.413 -29.275  0.00  0.00    +0.000 OA
ATOM     16  S   UNL     1     -46.452  -6.506 -28.388  0.00  0.00    +0.000 S 
ENDROOT
BRANCH   1  18
ATOM     17  C   UNL     1     -46.992  -2.879 -22.156  0.00  0.00    +0.000 C 
ATOM     18  C   UNL     1     -47.388  -2.012 -23.338  0.00  0.00    +0.000 C 
ENDBRANCH   1  18
BRANCH  13  19
ATOM     19  C   UNL     1     -47.756  -4.379 -29.488  0.00  0.00    +0.000 C 
BRANCH  19  20
ATOM     20  C   UNL     1     -46.638  -3.935 -30.369  0.00  0.00    +0.000 C 
ATOM     21  N   UNL     1     -46.274  -4.723 -31.504  0.00  0.00    +0.000 NA
ATOM     22  O   UNL     1     -46.024  -2.867 -30.106  0.00  0.00    +0.000 OA
BRANCH  21  23
ATOM     23  C   UNL     1     -45.196  -4.334 -32.399  0.00  0.00    +0.000 C 
BRANCH  23  24
ATOM     24  C   UNL     1     -45.772  -3.859 -33.720  0.00  0.00    +0.000 C 
BRANCH  24  26
ATOM     25  C   UNL     1     -44.729  -1.931 -33.480  0.00  0.00    +0.000 C 
ATOM     26  O   UNL     1     -45.994  -2.482 -33.675  0.00  0.00    +0.000 OA
ENDBRANCH  24  26
ENDBRANCH  23  24
ENDBRANCH  21  23
ENDBRANCH  19  20
ENDBRANCH  13  19
TORSDOF 6
ENDMDL
MODEL 2
REMARK VINA RESULT:      -6.1      2.754      6.054
REMARK  Name = ZINC000011118204 ZINC11118204 ChemDiv-D289-0016 MCULE-3876804959 MolPort-006-798-638 PubChem-17200660
REMARK  6 active torsions:
REMARK  status: ('A' for Active; 'I' for Inactive)
REMARK    1  A    between atoms: C_2  and  C_3
REMARK    2  A    between atoms: C_7  and  C_8
REMARK    3  A    between atoms: C_7  and  N_20
REMARK    4  A    between atoms: C_9  and  C_10
REMARK    5  A    between atoms: C_9  and  N_21
REMARK    6  A    between atoms: C_10  and  O_23
REMARK                            x       y       z     vdW  Elec       q    Type
REMARK                         _______ _______ _______ _____ _____    ______ ____
ROOT
ATOM      1  C   UNL     1     -47.197  -4.030 -25.296  0.00  0.00    +0.000 A 
ATOM      2  C   UNL     1     -46.867  -5.144 -24.531  0.00  0.00    +0.000 A 
ATOM      3  C   UNL     1     -46.489  -6.330 -25.158  0.00  0.00    +0.000 A 
ATOM      4  C   UNL     1     -46.430  -6.429 -26.559  0.00  0.00    +0.000 A 
ATOM      5  C   UNL     1     -46.530  -6.451 -29.603  0.00  0.00    +0.000 A 
ATOM      6  C   UNL     1     -46.714  -5.279 -28.843  0.00  0.00    +0.000 A 
ATOM      7  C   UNL     1     -46.873  -4.060 -29.529  0.00  0.00    +0.000 A 
ATOM      8  C   UNL     1     -46.845  -4.008 -30.925  0.00  0.00    +0.000 A 
ATOM      9  C   UNL     1     -46.660  -5.176 -31.662  0.00  0.00    +0.000 A 
ATOM     10  C   UNL     1     -46.504  -6.396 -31.001  0.00  0.00    +0.000 A 
ATOM     11  C   UNL     1     -46.761  -5.290 -27.348  0.00  0.00    +0.000 A 
ATOM     12  C   UNL     1     -47.136  -4.104 -26.688  0.00  0.00    +0.000 A 
ATOM     13  N   UNL     1     -46.030  -7.679 -27.152  0.00  0.00    +0.000 N 
ATOM     14  O   UNL     1     -47.591  -8.806 -28.963  0.00  0.00    +0.000 OA
ATOM     15  O   UNL     1     -45.169  -8.720 -29.422  0.00  0.00    +0.000 OA
ATOM     16  S   UNL     1     -46.338  -7.992 -28.818  0.00  0.00    +0.000 S 
ENDROOT
BRANCH   1  18
ATOM     17  C   UNL     1     -47.406  -1.579 -25.559  0.00  0.00    +0.000 C 
ATOM     18  C   UNL     1     -47.582  -2.758 -24.620  0.00  0.00    +0.000 C 
ENDBRANCH   1  18
BRANCH  13  19
ATOM     19  C   UNL     1     -45.463  -8.764 -26.354  0.00  0.00    +0.000 C 
BRANCH  19  20
ATOM     20  C   UNL     1     -46.397  -9.926 -26.322  0.00  0.00    +0.000 C 
ATOM     21  N   UNL     1     -46.032 -11.145 -26.970  0.00  0.00    +0.000 NA
ATOM     22  O   UNL     1     -47.499  -9.824 -25.721  0.00  0.00    +0.000 OA
BRANCH  21  23
ATOM     23  C   UNL     1     -46.901 -12.312 -26.965  0.00  0.00    +0.000 C 
BRANCH  23  24
ATOM     24  C   UNL     1     -47.073 -12.829 -28.381  0.00  0.00    +0.000 C 
BRANCH  24  26
ATOM     25  C   UNL     1     -46.209 -12.825 -30.410  0.00  0.00    +0.000 C 
ATOM     26  O   UNL     1     -46.347 -12.036 -29.270  0.00  0.00    +0.000 OA
ENDBRANCH  24  26
ENDBRANCH  23  24
ENDBRANCH  21  23
ENDBRANCH  19  20
ENDBRANCH  13  19
TORSDOF 6
ENDMDL
MODEL 3
REMARK VINA RESULT:      -5.9      1.621      2.079
REMARK  Name = ZINC000011118204 ZINC11118204 ChemDiv-D289-0016 MCULE-3876804959 MolPort-006-798-638 PubChem-17200660
REMARK  6 active torsions:
REMARK  status: ('A' for Active; 'I' for Inactive)
REMARK    1  A    between atoms: C_2  and  C_3
REMARK    2  A    between atoms: C_7  and  C_8
REMARK    3  A    between atoms: C_7  and  N_20
REMARK    4  A    between atoms: C_9  and  C_10
REMARK    5  A    between atoms: C_9  and  N_21
REMARK    6  A    between atoms: C_10  and  O_23
REMARK                            x       y       z     vdW  Elec       q    Type
REMARK                         _______ _______ _______ _____ _____    ______ ____
ROOT
ATOM      1  C   UNL     1     -47.114  -4.408 -25.448  0.00  0.00    +0.000 A 
ATOM      2  C   UNL     1     -47.612  -3.512 -26.390  0.00  0.00    +0.000 A 
ATOM      3  C   UNL     1     -47.490  -3.792 -27.749  0.00  0.00    +0.000 A 
ATOM      4  C   UNL     1     -46.872  -4.972 -28.198  0.00  0.00    +0.000 A 
ATOM      5  C   UNL     1     -45.356  -7.510 -28.934  0.00  0.00    +0.000 A 
ATOM      6  C   UNL     1     -45.708  -7.189 -27.607  0.00  0.00    +0.000 A 
ATOM      7  C   UNL     1     -45.410  -8.124 -26.597  0.00  0.00    +0.000 A 
ATOM      8  C   UNL     1     -44.788  -9.338 -26.897  0.00  0.00    +0.000 A 
ATOM      9  C   UNL     1     -44.448  -9.640 -28.214  0.00  0.00    +0.000 A 
ATOM     10  C   UNL     1     -44.731  -8.726 -29.230  0.00  0.00    +0.000 A 
ATOM     11  C   UNL     1     -46.366  -5.897 -27.241  0.00  0.00    +0.000 A 
ATOM     12  C   UNL     1     -46.505  -5.590 -25.874  0.00  0.00    +0.000 A 
ATOM     13  N   UNL     1     -46.777  -5.212 -29.616  0.00  0.00    +0.000 N 
ATOM     14  O   UNL     1     -44.415  -5.736 -30.680  0.00  0.00    +0.000 OA
ATOM     15  O   UNL     1     -46.327  -7.131 -31.373  0.00  0.00    +0.000 OA
ATOM     16  S   UNL     1     -45.686  -6.396 -30.229  0.00  0.00    +0.000 S 
ENDROOT
BRANCH   1  18
ATOM     17  C   UNL     1     -47.259  -2.614 -23.751  0.00  0.00    +0.000 C 
ATOM     18  C   UNL     1     -47.264  -4.112 -23.995  0.00  0.00    +0.000 C 
ENDBRANCH   1  18
BRANCH  13  19
ATOM     19  C   UNL     1     -47.501  -4.392 -30.585  0.00  0.00    +0.000 C 
BRANCH  19  20
ATOM     20  C   UNL     1     -46.567  -3.451 -31.269  0.00  0.00    +0.000 C 
ATOM     21  N   UNL     1     -46.362  -3.555 -32.678  0.00  0.00    +0.000 NA
ATOM     22  O   UNL     1     -45.969  -2.570 -30.596  0.00  0.00    +0.000 OA
BRANCH  21  23
ATOM     23  C   UNL     1     -45.468  -2.660 -33.395  0.00  0.00    +0.000 C 
BRANCH  23  24
ATOM     24  C   UNL     1     -44.070  -3.248 -33.429  0.00  0.00    +0.000 C 
BRANCH  24  26
ATOM     25  C   UNL     1     -43.013  -1.629 -32.368  0.00  0.00    +0.000 C 
ATOM     26  O   UNL     1     -43.131  -2.234 -33.618  0.00  0.00    +0.000 OA
ENDBRANCH  24  26
ENDBRANCH  23  24
ENDBRANCH  21  23
ENDBRANCH  19  20
ENDBRANCH  13  19
TORSDOF 6
ENDMDL
