MODEL 1
REMARK VINA RESULT:      -6.9      0.000      0.000
REMARK  Name = ZINC000493967026
REMARK  7 active torsions:
REMARK  status: ('A' for Active; 'I' for Inactive)
REMARK    1  A    between atoms: C_2  and  O_25
REMARK    2  A    between atoms: C_5  and  C_6
REMARK    3  A    between atoms: C_7  and  C_8
REMARK    4  A    between atoms: C_9  and  C_10
REMARK    5  A    between atoms: C_9  and  N_28
REMARK    6  A    between atoms: C_12  and  C_13
REMARK    7  A    between atoms: C_17  and  C_18
REMARK                            x       y       z     vdW  Elec       q    Type
REMARK                         _______ _______ _______ _____ _____    ______ ____
ROOT
ATOM      1  C   UNL     1     -46.701  -4.243 -30.571  0.00  0.00    +0.000 C 
ATOM      2  O   UNL     1     -47.011  -3.478 -29.620  0.00  0.00    +0.000 OA
ATOM      3  N   UNL     1     -46.681  -5.661 -30.384  0.00  0.00    +0.000 NA
ENDROOT
BRANCH   1   5
ATOM      4  C   UNL     1     -44.970  -4.158 -32.363  0.00  0.00    +0.000 C 
ATOM      5  C   UNL     1     -46.350  -3.656 -31.898  0.00  0.00    +0.000 C 
ATOM      6  C   UNL     1     -47.379  -4.062 -32.961  0.00  0.00    +0.000 C 
ATOM      7  C   UNL     1     -46.555  -4.717 -33.996  0.00  0.00    +0.000 C 
ATOM      8  C   UNL     1     -44.190  -5.546 -34.374  0.00  0.00    +0.000 C 
ATOM      9  O   UNL     1     -47.024  -5.213 -35.054  0.00  0.00    +0.000 OA
ATOM     10  N   UNL     1     -45.181  -4.749 -33.672  0.00  0.00    +0.000 N 
BRANCH   4  14
ATOM     11  C   UNL     1     -42.182  -0.883 -32.583  0.00  0.00    +0.000 A 
ATOM     12  C   UNL     1     -43.555  -0.663 -32.733  0.00  0.00    +0.000 A 
ATOM     13  C   UNL     1     -44.454  -1.732 -32.658  0.00  0.00    +0.000 A 
ATOM     14  C   UNL     1     -43.986  -3.030 -32.431  0.00  0.00    +0.000 A 
ATOM     15  C   UNL     1     -42.609  -3.255 -32.283  0.00  0.00    +0.000 A 
ATOM     16  C   UNL     1     -41.712  -2.187 -32.358  0.00  0.00    +0.000 A 
BRANCH  11  18
ATOM     17  C   UNL     1     -40.063   0.243 -31.983  0.00  0.00    +0.000 C 
ATOM     18  O   UNL     1     -41.311   0.207 -32.663  0.00  0.00    +0.000 OA
ENDBRANCH  11  18
ENDBRANCH   4  14
ENDBRANCH   1   5
BRANCH   3  19
ATOM     19  C   UNL     1     -47.007  -6.274 -29.109  0.00  0.00    +0.000 C 
BRANCH  19  20
ATOM     20  C   UNL     1     -47.091  -7.750 -29.276  0.00  0.00    +0.000 A 
ATOM     21  C   UNL     1     -47.393  -9.657 -30.182  0.00  0.00    +0.000 A 
ATOM     22  C   UNL     1     -46.898  -9.819 -28.903  0.00  0.00    +0.000 A 
ATOM     23  N   UNL     1     -47.509  -8.337 -30.415  0.00  0.00    +0.000 NA
ATOM     24  N   UNL     1     -46.699  -8.619 -28.327  0.00  0.00    +0.000 NA
BRANCH  22  25
ATOM     25  C   UNL     1     -46.611 -11.105 -28.244  0.00  0.00    +0.000 A 
ATOM     26  C   UNL     1     -46.540 -12.283 -28.999  0.00  0.00    +0.000 A 
ATOM     27  C   UNL     1     -46.268 -13.506 -28.377  0.00  0.00    +0.000 A 
ATOM     28  C   UNL     1     -46.064 -13.556 -26.995  0.00  0.00    +0.000 A 
ATOM     29  C   UNL     1     -46.133 -12.386 -26.235  0.00  0.00    +0.000 A 
ATOM     30  C   UNL     1     -46.405 -11.164 -26.857  0.00  0.00    +0.000 A 
BRANCH  29  31
ATOM     31  C   UNL     1     -45.924 -12.438 -24.816  0.00  0.00    +0.000 C 
ATOM     32  N   UNL     1     -45.757 -12.479 -23.671  0.00  0.00    +0.000 NA
ENDBRANCH  29  31
ENDBRANCH  22  25
ENDBRANCH  19  20
ENDBRANCH   3  19
TORSDOF 7
ENDMDL
MODEL 2
REMARK VINA RESULT:      -6.7      5.225      7.706
REMARK  Name = ZINC000493967026
REMARK  7 active torsions:
REMARK  status: ('A' for Active; 'I' for Inactive)
REMARK    1  A    between atoms: C_2  and  O_25
REMARK    2  A    between atoms: C_5  and  C_6
REMARK    3  A    between atoms: C_7  and  C_8
REMARK    4  A    between atoms: C_9  and  C_10
REMARK    5  A    between atoms: C_9  and  N_28
REMARK    6  A    between atoms: C_12  and  C_13
REMARK    7  A    between atoms: C_17  and  C_18
REMARK                            x       y       z     vdW  Elec       q    Type
REMARK                         _______ _______ _______ _____ _____    ______ ____
ROOT
ATOM      1  C   UNL     1     -46.455  -5.527 -34.751  0.00  0.00    +0.000 C 
ATOM      2  O   UNL     1     -47.493  -4.813 -34.740  0.00  0.00    +0.000 OA
ATOM      3  N   UNL     1     -46.198  -6.416 -35.841  0.00  0.00    +0.000 NA
ENDROOT
BRANCH   1   5
ATOM      4  C   UNL     1     -45.802  -4.205 -32.741  0.00  0.00    +0.000 C 
ATOM      5  C   UNL     1     -45.495  -5.438 -33.612  0.00  0.00    +0.000 C 
ATOM      6  C   UNL     1     -45.598  -6.680 -32.717  0.00  0.00    +0.000 C 
ATOM      7  C   UNL     1     -45.898  -6.114 -31.387  0.00  0.00    +0.000 C 
ATOM      8  C   UNL     1     -46.518  -3.912 -30.295  0.00  0.00    +0.000 C 
ATOM      9  O   UNL     1     -46.073  -6.811 -30.354  0.00  0.00    +0.000 OA
ATOM     10  N   UNL     1     -45.988  -4.705 -31.392  0.00  0.00    +0.000 N 
BRANCH   4  14
ATOM     11  C   UNL     1     -42.541  -1.395 -32.881  0.00  0.00    +0.000 A 
ATOM     12  C   UNL     1     -42.329  -2.716 -32.473  0.00  0.00    +0.000 A 
ATOM     13  C   UNL     1     -43.393  -3.622 -32.433  0.00  0.00    +0.000 A 
ATOM     14  C   UNL     1     -44.678  -3.215 -32.801  0.00  0.00    +0.000 A 
ATOM     15  C   UNL     1     -44.897  -1.890 -33.208  0.00  0.00    +0.000 A 
ATOM     16  C   UNL     1     -43.833  -0.985 -33.248  0.00  0.00    +0.000 A 
BRANCH  11  18
ATOM     17  C   UNL     1     -40.920   0.082 -31.737  0.00  0.00    +0.000 C 
ATOM     18  O   UNL     1     -41.456  -0.515 -32.911  0.00  0.00    +0.000 OA
ENDBRANCH  11  18
ENDBRANCH   4  14
ENDBRANCH   1   5
BRANCH   3  19
ATOM     19  C   UNL     1     -47.109  -6.540 -36.965  0.00  0.00    +0.000 C 
BRANCH  19  20
ATOM     20  C   UNL     1     -46.626  -7.610 -37.879  0.00  0.00    +0.000 A 
ATOM     21  C   UNL     1     -45.424  -8.646 -39.304  0.00  0.00    +0.000 A 
ATOM     22  C   UNL     1     -46.413  -9.484 -38.828  0.00  0.00    +0.000 A 
ATOM     23  N   UNL     1     -45.562  -7.456 -38.692  0.00  0.00    +0.000 NA
ATOM     24  N   UNL     1     -47.172  -8.839 -37.923  0.00  0.00    +0.000 NA
BRANCH  22  25
ATOM     25  C   UNL     1     -46.624 -10.886 -39.227  0.00  0.00    +0.000 A 
ATOM     26  C   UNL     1     -46.666 -11.234 -40.584  0.00  0.00    +0.000 A 
ATOM     27  C   UNL     1     -46.867 -12.564 -40.967  0.00  0.00    +0.000 A 
ATOM     28  C   UNL     1     -47.026 -13.554 -39.994  0.00  0.00    +0.000 A 
ATOM     29  C   UNL     1     -46.986 -13.216 -38.640  0.00  0.00    +0.000 A 
ATOM     30  C   UNL     1     -46.785 -11.886 -38.256  0.00  0.00    +0.000 A 
BRANCH  29  31
ATOM     31  C   UNL     1     -47.150 -14.233 -37.640  0.00  0.00    +0.000 C 
ATOM     32  N   UNL     1     -47.283 -15.054 -36.835  0.00  0.00    +0.000 NA
ENDBRANCH  29  31
ENDBRANCH  22  25
ENDBRANCH  19  20
ENDBRANCH   3  19
TORSDOF 7
ENDMDL
MODEL 3
REMARK VINA RESULT:      -6.7     11.938     15.744
REMARK  Name = ZINC000493967026
REMARK  7 active torsions:
REMARK  status: ('A' for Active; 'I' for Inactive)
REMARK    1  A    between atoms: C_2  and  O_25
REMARK    2  A    between atoms: C_5  and  C_6
REMARK    3  A    between atoms: C_7  and  C_8
REMARK    4  A    between atoms: C_9  and  C_10
REMARK    5  A    between atoms: C_9  and  N_28
REMARK    6  A    between atoms: C_12  and  C_13
REMARK    7  A    between atoms: C_17  and  C_18
REMARK                            x       y       z     vdW  Elec       q    Type
REMARK                         _______ _______ _______ _____ _____    ______ ____
ROOT
ATOM      1  C   UNL     1     -46.362 -14.601 -21.527  0.00  0.00    +0.000 C 
ATOM      2  O   UNL     1     -46.618 -13.378 -21.685  0.00  0.00    +0.000 OA
ATOM      3  N   UNL     1     -45.964 -15.407 -22.639  0.00  0.00    +0.000 NA
ENDROOT
BRANCH   1   5
ATOM      4  C   UNL     1     -45.098 -15.285 -19.490  0.00  0.00    +0.000 C 
ATOM      5  C   UNL     1     -46.480 -15.203 -20.167  0.00  0.00    +0.000 C 
ATOM      6  C   UNL     1     -47.389 -14.349 -19.272  0.00  0.00    +0.000 C 
ATOM      7  C   UNL     1     -46.525 -14.032 -18.118  0.00  0.00    +0.000 C 
ATOM      8  C   UNL     1     -44.110 -14.225 -17.373  0.00  0.00    +0.000 C 
ATOM      9  O   UNL     1     -46.893 -13.327 -17.142  0.00  0.00    +0.000 OA
ATOM     10  N   UNL     1     -45.231 -14.585 -18.226  0.00  0.00    +0.000 N 
BRANCH   4  14
ATOM     11  C   UNL     1     -43.983 -19.399 -18.876  0.00  0.00    +0.000 A 
ATOM     12  C   UNL     1     -45.302 -19.056 -19.193  0.00  0.00    +0.000 A 
ATOM     13  C   UNL     1     -45.655 -17.718 -19.393  0.00  0.00    +0.000 A 
ATOM     14  C   UNL     1     -44.691 -16.712 -19.279  0.00  0.00    +0.000 A 
ATOM     15  C   UNL     1     -43.368 -17.051 -18.958  0.00  0.00    +0.000 A 
ATOM     16  C   UNL     1     -43.016 -18.388 -18.758  0.00  0.00    +0.000 A 
BRANCH  11  18
ATOM     17  C   UNL     1     -42.339 -21.191 -18.426  0.00  0.00    +0.000 C 
ATOM     18  O   UNL     1     -43.664 -20.746 -18.684  0.00  0.00    +0.000 OA
ENDBRANCH  11  18
ENDBRANCH   4  14
ENDBRANCH   1   5
BRANCH   3  19
ATOM     19  C   UNL     1     -45.844 -14.865 -23.981  0.00  0.00    +0.000 C 
BRANCH  19  20
ATOM     20  C   UNL     1     -45.065 -15.807 -24.828  0.00  0.00    +0.000 A 
ATOM     21  C   UNL     1     -44.221 -16.730 -26.556  0.00  0.00    +0.000 A 
ATOM     22  C   UNL     1     -43.713 -17.319 -25.415  0.00  0.00    +0.000 A 
ATOM     23  N   UNL     1     -45.077 -15.765 -26.175  0.00  0.00    +0.000 NA
ATOM     24  N   UNL     1     -44.236 -16.737 -24.319  0.00  0.00    +0.000 NA
BRANCH  22  25
ATOM     25  C   UNL     1     -42.733 -18.418 -25.372  0.00  0.00    +0.000 A 
ATOM     26  C   UNL     1     -41.685 -18.464 -26.300  0.00  0.00    +0.000 A 
ATOM     27  C   UNL     1     -40.752 -19.506 -26.263  0.00  0.00    +0.000 A 
ATOM     28  C   UNL     1     -40.864 -20.508 -25.296  0.00  0.00    +0.000 A 
ATOM     29  C   UNL     1     -41.906 -20.470 -24.367  0.00  0.00    +0.000 A 
ATOM     30  C   UNL     1     -42.838 -19.429 -24.404  0.00  0.00    +0.000 A 
BRANCH  29  31
ATOM     31  C   UNL     1     -42.021 -21.501 -23.374  0.00  0.00    +0.000 C 
ATOM     32  N   UNL     1     -42.114 -22.331 -22.574  0.00  0.00    +0.000 NA
ENDBRANCH  29  31
ENDBRANCH  22  25
ENDBRANCH  19  20
ENDBRANCH   3  19
TORSDOF 7
ENDMDL
