MODEL 1
REMARK VINA RESULT:      -6.2      0.000      0.000
REMARK  Name = ZINC000096181340 ZINC96181340 PubChem-97457212
REMARK  4 active torsions:
REMARK  status: ('A' for Active; 'I' for Inactive)
REMARK    1  A    between atoms: C_5  and  C_8
REMARK    2  A    between atoms: C_9  and  C_13
REMARK    3  A    between atoms: C_14  and  C_15
REMARK    4  A    between atoms: C_14  and  N_23
REMARK                            x       y       z     vdW  Elec       q    Type
REMARK                         _______ _______ _______ _____ _____    ______ ____
ROOT
ATOM      1  C   UNL     1     -44.996  -4.217 -32.428  0.00  0.00    +0.000 C 
ATOM      2  C   UNL     1     -46.363  -3.691 -31.951  0.00  0.00    +0.000 C 
ATOM      3  C   UNL     1     -47.413  -4.114 -32.986  0.00  0.00    +0.000 C 
ATOM      4  C   UNL     1     -46.613  -4.801 -34.018  0.00  0.00    +0.000 C 
ATOM      5  C   UNL     1     -44.262  -5.659 -34.418  0.00  0.00    +0.000 C 
ATOM      6  O   UNL     1     -47.105  -5.318 -35.055  0.00  0.00    +0.000 OA
ATOM      7  N   UNL     1     -45.235  -4.837 -33.717  0.00  0.00    +0.000 N 
ENDROOT
BRANCH   1  12
ATOM      8  C   UNL     1     -41.113   0.054 -32.811  0.00  0.00    +0.000 C 
ATOM      9  C   UNL     1     -42.116  -1.038 -32.717  0.00  0.00    +0.000 A 
ATOM     10  C   UNL     1     -43.450  -0.792 -33.054  0.00  0.00    +0.000 A 
ATOM     11  C   UNL     1     -44.393  -1.820 -32.965  0.00  0.00    +0.000 A 
ATOM     12  C   UNL     1     -44.004  -3.100 -32.539  0.00  0.00    +0.000 A 
ATOM     13  C   UNL     1     -42.667  -3.339 -32.200  0.00  0.00    +0.000 A 
ATOM     14  C   UNL     1     -41.725  -2.310 -32.289  0.00  0.00    +0.000 A 
ENDBRANCH   1  12
BRANCH   2  15
ATOM     15  C   UNL     1     -46.697  -4.243 -30.604  0.00  0.00    +0.000 C 
ATOM     16  O   UNL     1     -46.921  -3.450 -29.651  0.00  0.00    +0.000 OA
ATOM     17  N   UNL     1     -46.756  -5.657 -30.401  0.00  0.00    +0.000 NA
BRANCH  17  18
ATOM     18  C   UNL     1     -47.071  -6.237 -29.106  0.00  0.00    +0.000 C 
BRANCH  18  19
ATOM     19  C   UNL     1     -47.021  -7.721 -29.196  0.00  0.00    +0.000 A 
ATOM     20  C   UNL     1     -47.132  -8.357 -30.435  0.00  0.00    +0.000 A 
ATOM     21  C   UNL     1     -47.057  -9.748 -30.509  0.00  0.00    +0.000 A 
ATOM     22  C   UNL     1     -46.867 -10.485 -29.337  0.00  0.00    +0.000 A 
ATOM     23  C   UNL     1     -46.824  -8.492 -28.048  0.00  0.00    +0.000 A 
ATOM     24  N   UNL     1     -46.755  -9.848 -28.141  0.00  0.00    +0.000 NA
ENDBRANCH  18  19
ENDBRANCH  17  18
ENDBRANCH   2  15
TORSDOF 4
ENDMDL
MODEL 2
REMARK VINA RESULT:      -6.1     10.567     14.225
REMARK  Name = ZINC000096181340 ZINC96181340 PubChem-97457212
REMARK  4 active torsions:
REMARK  status: ('A' for Active; 'I' for Inactive)
REMARK    1  A    between atoms: C_5  and  C_8
REMARK    2  A    between atoms: C_9  and  C_13
REMARK    3  A    between atoms: C_14  and  C_15
REMARK    4  A    between atoms: C_14  and  N_23
REMARK                            x       y       z     vdW  Elec       q    Type
REMARK                         _______ _______ _______ _____ _____    ______ ____
ROOT
ATOM      1  C   UNL     1     -43.849 -16.808 -25.877  0.00  0.00    +0.000 C 
ATOM      2  C   UNL     1     -44.507 -18.140 -26.283  0.00  0.00    +0.000 C 
ATOM      3  C   UNL     1     -43.449 -18.984 -27.005  0.00  0.00    +0.000 C 
ATOM      4  C   UNL     1     -42.269 -18.096 -27.030  0.00  0.00    +0.000 C 
ATOM      5  C   UNL     1     -41.460 -15.894 -26.072  0.00  0.00    +0.000 C 
ATOM      6  O   UNL     1     -41.161 -18.420 -27.533  0.00  0.00    +0.000 OA
ATOM      7  N   UNL     1     -42.502 -16.849 -26.414  0.00  0.00    +0.000 N 
ENDROOT
BRANCH   1  12
ATOM      8  C   UNL     1     -46.862 -12.316 -27.929  0.00  0.00    +0.000 C 
ATOM      9  C   UNL     1     -46.083 -13.470 -27.409  0.00  0.00    +0.000 A 
ATOM     10  C   UNL     1     -45.223 -14.171 -28.258  0.00  0.00    +0.000 A 
ATOM     11  C   UNL     1     -44.491 -15.257 -27.768  0.00  0.00    +0.000 A 
ATOM     12  C   UNL     1     -44.616 -15.644 -26.425  0.00  0.00    +0.000 A 
ATOM     13  C   UNL     1     -45.481 -14.939 -25.580  0.00  0.00    +0.000 A 
ATOM     14  C   UNL     1     -46.213 -13.854 -26.071  0.00  0.00    +0.000 A 
ENDBRANCH   1  12
BRANCH   2  15
ATOM     15  C   UNL     1     -45.026 -18.858 -25.081  0.00  0.00    +0.000 C 
ATOM     16  O   UNL     1     -45.852 -19.796 -25.232  0.00  0.00    +0.000 OA
ATOM     17  N   UNL     1     -44.589 -18.479 -23.774  0.00  0.00    +0.000 NA
BRANCH  17  18
ATOM     18  C   UNL     1     -45.071 -19.146 -22.576  0.00  0.00    +0.000 C 
BRANCH  18  19
ATOM     19  C   UNL     1     -45.487 -18.132 -21.570  0.00  0.00    +0.000 A 
ATOM     20  C   UNL     1     -46.027 -18.531 -20.346  0.00  0.00    +0.000 A 
ATOM     21  C   UNL     1     -46.390 -17.570 -19.401  0.00  0.00    +0.000 A 
ATOM     22  C   UNL     1     -46.200 -16.217 -19.696  0.00  0.00    +0.000 A 
ATOM     23  C   UNL     1     -45.306 -16.770 -21.825  0.00  0.00    +0.000 A 
ATOM     24  N   UNL     1     -45.666 -15.848 -20.892  0.00  0.00    +0.000 NA
ENDBRANCH  18  19
ENDBRANCH  17  18
ENDBRANCH   2  15
TORSDOF 4
ENDMDL
MODEL 3
REMARK VINA RESULT:      -6.1      1.792      2.425
REMARK  Name = ZINC000096181340 ZINC96181340 PubChem-97457212
REMARK  4 active torsions:
REMARK  status: ('A' for Active; 'I' for Inactive)
REMARK    1  A    between atoms: C_5  and  C_8
REMARK    2  A    between atoms: C_9  and  C_13
REMARK    3  A    between atoms: C_14  and  C_15
REMARK    4  A    between atoms: C_14  and  N_23
REMARK                            x       y       z     vdW  Elec       q    Type
REMARK                         _______ _______ _______ _____ _____    ______ ____
ROOT
ATOM      1  C   UNL     1     -44.858  -4.183 -32.274  0.00  0.00    +0.000 C 
ATOM      2  C   UNL     1     -46.198  -3.649 -31.733  0.00  0.00    +0.000 C 
ATOM      3  C   UNL     1     -47.298  -4.059 -32.720  0.00  0.00    +0.000 C 
ATOM      4  C   UNL     1     -46.551  -4.748 -33.791  0.00  0.00    +0.000 C 
ATOM      5  C   UNL     1     -44.228  -5.622 -34.301  0.00  0.00    +0.000 C 
ATOM      6  O   UNL     1     -47.094  -5.256 -34.807  0.00  0.00    +0.000 OA
ATOM      7  N   UNL     1     -45.161  -4.796 -33.554  0.00  0.00    +0.000 N 
ENDROOT
BRANCH   1  12
ATOM      8  C   UNL     1     -41.072   0.146 -32.903  0.00  0.00    +0.000 C 
ATOM      9  C   UNL     1     -42.039  -0.971 -32.738  0.00  0.00    +0.000 A 
ATOM     10  C   UNL     1     -41.587  -2.234 -32.344  0.00  0.00    +0.000 A 
ATOM     11  C   UNL     1     -42.496  -3.284 -32.189  0.00  0.00    +0.000 A 
ATOM     12  C   UNL     1     -43.864  -3.074 -32.426  0.00  0.00    +0.000 A 
ATOM     13  C   UNL     1     -44.310  -1.808 -32.823  0.00  0.00    +0.000 A 
ATOM     14  C   UNL     1     -43.399  -0.759 -32.978  0.00  0.00    +0.000 A 
ENDBRANCH   1  12
BRANCH   2  15
ATOM     15  C   UNL     1     -46.474  -4.204 -30.374  0.00  0.00    +0.000 C 
ATOM     16  O   UNL     1     -46.859  -3.430 -29.458  0.00  0.00    +0.000 OA
ATOM     17  N   UNL     1     -46.298  -5.600 -30.119  0.00  0.00    +0.000 NA
BRANCH  17  18
ATOM     18  C   UNL     1     -46.550  -6.182 -28.810  0.00  0.00    +0.000 C 
BRANCH  18  19
ATOM     19  C   UNL     1     -45.257  -6.467 -28.132  0.00  0.00    +0.000 A 
ATOM     20  C   UNL     1     -44.048  -6.147 -28.754  0.00  0.00    +0.000 A 
ATOM     21  C   UNL     1     -42.843  -6.396 -28.096  0.00  0.00    +0.000 A 
ATOM     22  C   UNL     1     -42.867  -6.961 -26.818  0.00  0.00    +0.000 A 
ATOM     23  C   UNL     1     -45.240  -7.023 -26.851  0.00  0.00    +0.000 A 
ATOM     24  N   UNL     1     -44.055  -7.260 -26.226  0.00  0.00    +0.000 NA
ENDBRANCH  18  19
ENDBRANCH  17  18
ENDBRANCH   2  15
TORSDOF 4
ENDMDL
