MODEL 1
REMARK VINA RESULT:      -6.3      0.000      0.000
REMARK  Name = ZINC000020530889
REMARK  7 active torsions:
REMARK  status: ('A' for Active; 'I' for Inactive)
REMARK    1  A    between atoms: C_2  and  O_23
REMARK    2  A    between atoms: C_6  and  C_7
REMARK    3  A    between atoms: C_11  and  C_12
REMARK    4  A    between atoms: C_14  and  O_26
REMARK    5  A    between atoms: C_16  and  O_27
REMARK    6  A    between atoms: C_18  and  O_28
REMARK    7  A    between atoms: C_21  and  O_29
REMARK                            x       y       z     vdW  Elec       q    Type
REMARK                         _______ _______ _______ _____ _____    ______ ____
ROOT
ATOM      1  C   UNL     1     -43.600 -18.451 -23.359  0.00  0.00    +0.000 C 
ATOM      2  C   UNL     1     -43.730 -19.670 -24.285  0.00  0.00    +0.000 C 
ATOM      3  C   UNL     1     -45.019 -19.635 -25.039  0.00  0.00    +0.000 C 
ATOM      4  C   UNL     1     -45.041 -17.168 -24.861  0.00  0.00    +0.000 C 
ATOM      5  C   UNL     1     -45.061 -14.615 -24.969  0.00  0.00    +0.000 C 
ATOM      6  O   UNL     1     -45.565 -20.706 -25.412  0.00  0.00    +0.000 OA
ATOM      7  O   UNL     1     -44.165 -14.494 -24.089  0.00  0.00    +0.000 OA
ATOM      8  N   UNL     1     -45.615 -18.379 -25.358  0.00  0.00    +0.000 NA
ATOM      9  N   UNL     1     -45.517 -15.916 -25.369  0.00  0.00    +0.000 NA
ATOM     10  N   UNL     1     -44.092 -17.210 -23.970  0.00  0.00    +0.000 NA
ENDROOT
BRANCH   1  15
ATOM     11  C   UNL     1     -44.124 -19.471 -19.714  0.00  0.00    +0.000 A 
ATOM     12  C   UNL     1     -45.482 -19.149 -19.556  0.00  0.00    +0.000 A 
ATOM     13  C   UNL     1     -46.216 -18.610 -20.608  0.00  0.00    +0.000 A 
ATOM     14  C   UNL     1     -45.603 -18.384 -21.837  0.00  0.00    +0.000 A 
ATOM     15  C   UNL     1     -44.249 -18.693 -22.024  0.00  0.00    +0.000 A 
ATOM     16  C   UNL     1     -43.495 -19.242 -20.967  0.00  0.00    +0.000 A 
BRANCH  11  18
ATOM     17  C   UNL     1     -42.659 -19.217 -17.728  0.00  0.00    +0.000 C 
ATOM     18  O   UNL     1     -43.404 -20.011 -18.643  0.00  0.00    +0.000 OA
ENDBRANCH  11  18
BRANCH  16  20
ATOM     19  C   UNL     1     -41.608 -20.840 -21.392  0.00  0.00    +0.000 C 
ATOM     20  O   UNL     1     -42.143 -19.536 -21.213  0.00  0.00    +0.000 OA
ENDBRANCH  16  20
ENDBRANCH   1  15
BRANCH   5  21
ATOM     21  C   UNL     1     -45.646 -13.413 -25.588  0.00  0.00    +0.000 A 
ATOM     22  C   UNL     1     -45.631 -12.189 -24.915  0.00  0.00    +0.000 A 
ATOM     23  C   UNL     1     -46.185 -11.040 -25.497  0.00  0.00    +0.000 A 
ATOM     24  C   UNL     1     -46.765 -11.109 -26.774  0.00  0.00    +0.000 A 
ATOM     25  C   UNL     1     -46.784 -12.347 -27.465  0.00  0.00    +0.000 A 
ATOM     26  C   UNL     1     -46.222 -13.481 -26.859  0.00  0.00    +0.000 A 
BRANCH  23  28
ATOM     27  C   UNL     1     -45.009  -9.001 -24.726  0.00  0.00    +0.000 C 
ATOM     28  O   UNL     1     -46.170  -9.814 -24.821  0.00  0.00    +0.000 OA
ENDBRANCH  23  28
BRANCH  24  30
ATOM     29  C   UNL     1     -46.645  -9.069 -28.229  0.00  0.00    +0.000 C 
ATOM     30  O   UNL     1     -47.303  -9.921 -27.303  0.00  0.00    +0.000 OA
ENDBRANCH  24  30
BRANCH  25  32
ATOM     31  C   UNL     1     -46.592 -12.678 -29.915  0.00  0.00    +0.000 C 
ATOM     32  O   UNL     1     -47.355 -12.446 -28.739  0.00  0.00    +0.000 OA
ENDBRANCH  25  32
ENDBRANCH   5  21
TORSDOF 7
ENDMDL
MODEL 2
REMARK VINA RESULT:      -6.3      0.281      2.273
REMARK  Name = ZINC000020530889
REMARK  7 active torsions:
REMARK  status: ('A' for Active; 'I' for Inactive)
REMARK    1  A    between atoms: C_2  and  O_23
REMARK    2  A    between atoms: C_6  and  C_7
REMARK    3  A    between atoms: C_11  and  C_12
REMARK    4  A    between atoms: C_14  and  O_26
REMARK    5  A    between atoms: C_16  and  O_27
REMARK    6  A    between atoms: C_18  and  O_28
REMARK    7  A    between atoms: C_21  and  O_29
REMARK                            x       y       z     vdW  Elec       q    Type
REMARK                         _______ _______ _______ _____ _____    ______ ____
ROOT
ATOM      1  C   UNL     1     -43.598 -18.436 -23.373  0.00  0.00    +0.000 C 
ATOM      2  C   UNL     1     -43.749 -19.652 -24.299  0.00  0.00    +0.000 C 
ATOM      3  C   UNL     1     -45.047 -19.605 -25.038  0.00  0.00    +0.000 C 
ATOM      4  C   UNL     1     -45.045 -17.138 -24.856  0.00  0.00    +0.000 C 
ATOM      5  C   UNL     1     -45.045 -14.585 -24.960  0.00  0.00    +0.000 C 
ATOM      6  O   UNL     1     -45.606 -20.671 -25.406  0.00  0.00    +0.000 OA
ATOM      7  O   UNL     1     -44.137 -14.473 -24.091  0.00  0.00    +0.000 OA
ATOM      8  N   UNL     1     -45.635 -18.343 -25.349  0.00  0.00    +0.000 NA
ATOM      9  N   UNL     1     -45.516 -15.881 -25.357  0.00  0.00    +0.000 NA
ATOM     10  N   UNL     1     -44.087 -17.190 -23.976  0.00  0.00    +0.000 NA
ENDROOT
BRANCH   1  15
ATOM     11  C   UNL     1     -44.087 -19.452 -19.722  0.00  0.00    +0.000 A 
ATOM     12  C   UNL     1     -45.442 -19.124 -19.549  0.00  0.00    +0.000 A 
ATOM     13  C   UNL     1     -46.185 -18.582 -20.594  0.00  0.00    +0.000 A 
ATOM     14  C   UNL     1     -45.584 -18.359 -21.829  0.00  0.00    +0.000 A 
ATOM     15  C   UNL     1     -44.234 -18.675 -22.031  0.00  0.00    +0.000 A 
ATOM     16  C   UNL     1     -43.471 -19.227 -20.982  0.00  0.00    +0.000 A 
BRANCH  11  18
ATOM     17  C   UNL     1     -42.610 -19.204 -17.745  0.00  0.00    +0.000 C 
ATOM     18  O   UNL     1     -43.359 -19.996 -18.659  0.00  0.00    +0.000 OA
ENDBRANCH  11  18
BRANCH  16  20
ATOM     19  C   UNL     1     -41.598 -20.834 -21.434  0.00  0.00    +0.000 C 
ATOM     20  O   UNL     1     -42.123 -19.528 -21.243  0.00  0.00    +0.000 OA
ENDBRANCH  16  20
ENDBRANCH   1  15
BRANCH   5  21
ATOM     21  C   UNL     1     -45.626 -13.377 -25.571  0.00  0.00    +0.000 A 
ATOM     22  C   UNL     1     -46.180 -13.426 -26.852  0.00  0.00    +0.000 A 
ATOM     23  C   UNL     1     -46.735 -12.280 -27.441  0.00  0.00    +0.000 A 
ATOM     24  C   UNL     1     -46.740 -11.062 -26.741  0.00  0.00    +0.000 A 
ATOM     25  C   UNL     1     -46.180 -11.004 -25.440  0.00  0.00    +0.000 A 
ATOM     26  C   UNL     1     -45.631 -12.165 -24.875  0.00  0.00    +0.000 A 
BRANCH  23  28
ATOM     27  C   UNL     1     -46.537 -12.690 -29.875  0.00  0.00    +0.000 C 
ATOM     28  O   UNL     1     -47.289 -12.330 -28.725  0.00  0.00    +0.000 OA
ENDBRANCH  23  28
BRANCH  24  30
ATOM     29  C   UNL     1     -46.590  -8.977 -28.127  0.00  0.00    +0.000 C 
ATOM     30  O   UNL     1     -47.312  -9.951 -27.386  0.00  0.00    +0.000 OA
ENDBRANCH  24  30
BRANCH  25  32
ATOM     31  C   UNL     1     -45.559  -9.672 -23.442  0.00  0.00    +0.000 C 
ATOM     32  O   UNL     1     -46.170  -9.804 -24.719  0.00  0.00    +0.000 OA
ENDBRANCH  25  32
ENDBRANCH   5  21
TORSDOF 7
ENDMDL
MODEL 3
REMARK VINA RESULT:      -6.1      6.991     14.497
REMARK  Name = ZINC000020530889
REMARK  7 active torsions:
REMARK  status: ('A' for Active; 'I' for Inactive)
REMARK    1  A    between atoms: C_2  and  O_23
REMARK    2  A    between atoms: C_6  and  C_7
REMARK    3  A    between atoms: C_11  and  C_12
REMARK    4  A    between atoms: C_14  and  O_26
REMARK    5  A    between atoms: C_16  and  O_27
REMARK    6  A    between atoms: C_18  and  O_28
REMARK    7  A    between atoms: C_21  and  O_29
REMARK                            x       y       z     vdW  Elec       q    Type
REMARK                         _______ _______ _______ _____ _____    ______ ____
ROOT
ATOM      1  C   UNL     1     -45.775  -3.620 -31.621  0.00  0.00    +0.000 C 
ATOM      2  C   UNL     1     -46.698  -3.468 -32.839  0.00  0.00    +0.000 C 
ATOM      3  C   UNL     1     -46.880  -4.775 -33.540  0.00  0.00    +0.000 C 
ATOM      4  C   UNL     1     -46.451  -5.960 -31.411  0.00  0.00    +0.000 C 
ATOM      5  C   UNL     1     -46.275  -7.298 -29.241  0.00  0.00    +0.000 C 
ATOM      6  O   UNL     1     -47.119  -4.805 -34.775  0.00  0.00    +0.000 OA
ATOM      7  O   UNL     1     -45.809  -6.324 -28.588  0.00  0.00    +0.000 OA
ATOM      8  N   UNL     1     -46.807  -5.990 -32.795  0.00  0.00    +0.000 NA
ATOM      9  N   UNL     1     -46.598  -7.154 -30.632  0.00  0.00    +0.000 NA
ATOM     10  N   UNL     1     -46.011  -4.860 -30.871  0.00  0.00    +0.000 NA
ENDROOT
BRANCH   1  15
ATOM     11  C   UNL     1     -42.452  -2.116 -32.758  0.00  0.00    +0.000 A 
ATOM     12  C   UNL     1     -41.631  -3.255 -32.711  0.00  0.00    +0.000 A 
ATOM     13  C   UNL     1     -42.143  -4.488 -32.317  0.00  0.00    +0.000 A 
ATOM     14  C   UNL     1     -43.483  -4.601 -31.963  0.00  0.00    +0.000 A 
ATOM     15  C   UNL     1     -44.326  -3.482 -31.999  0.00  0.00    +0.000 A 
ATOM     16  C   UNL     1     -43.821  -2.229 -32.398  0.00  0.00    +0.000 A 
BRANCH  11  18
ATOM     17  C   UNL     1     -40.898  -0.210 -32.431  0.00  0.00    +0.000 C 
ATOM     18  O   UNL     1     -41.918  -0.885 -33.157  0.00  0.00    +0.000 OA
ENDBRANCH  11  18
BRANCH  16  20
ATOM     19  C   UNL     1     -44.795  -0.132 -31.422  0.00  0.00    +0.000 C 
ATOM     20  O   UNL     1     -44.713  -1.142 -32.418  0.00  0.00    +0.000 OA
ENDBRANCH  16  20
ENDBRANCH   1  15
BRANCH   5  21
ATOM     21  C   UNL     1     -46.487  -8.593 -28.572  0.00  0.00    +0.000 A 
ATOM     22  C   UNL     1     -46.635  -8.659 -27.185  0.00  0.00    +0.000 A 
ATOM     23  C   UNL     1     -46.837  -9.888 -26.539  0.00  0.00    +0.000 A 
ATOM     24  C   UNL     1     -46.894 -11.075 -27.289  0.00  0.00    +0.000 A 
ATOM     25  C   UNL     1     -46.745 -11.016 -28.698  0.00  0.00    +0.000 A 
ATOM     26  C   UNL     1     -46.544  -9.773 -29.318  0.00  0.00    +0.000 A 
BRANCH  23  28
ATOM     27  C   UNL     1     -46.204  -9.172 -24.254  0.00  0.00    +0.000 C 
ATOM     28  O   UNL     1     -46.984  -9.953 -25.149  0.00  0.00    +0.000 OA
ENDBRANCH  23  28
BRANCH  24  30
ATOM     29  C   UNL     1     -46.069 -13.119 -26.094  0.00  0.00    +0.000 C 
ATOM     30  O   UNL     1     -47.100 -12.273 -26.583  0.00  0.00    +0.000 OA
ENDBRANCH  24  30
BRANCH  25  32
ATOM     31  C   UNL     1     -45.645 -12.944 -29.804  0.00  0.00    +0.000 C 
ATOM     32  O   UNL     1     -46.798 -12.182 -29.471  0.00  0.00    +0.000 OA
ENDBRANCH  25  32
ENDBRANCH   5  21
TORSDOF 7
ENDMDL
