MODEL 1
REMARK VINA RESULT:      -6.4      0.000      0.000
REMARK  Name = ZINC000072335159 ZINC72335159 PubChem-95797838
REMARK  4 active torsions:
REMARK  status: ('A' for Active; 'I' for Inactive)
REMARK    1  A    between atoms: C_3  and  C_6
REMARK    2  A    between atoms: C_8  and  C_10
REMARK    3  A    between atoms: C_11  and  C_12
REMARK    4  A    between atoms: C_11  and  N_22
REMARK                            x       y       z     vdW  Elec       q    Type
REMARK                         _______ _______ _______ _____ _____    ______ ____
ROOT
ATOM      1  C   UNL     1     -46.570  -9.937 -31.098  0.00  0.00    +0.000 C 
ATOM      2  C   UNL     1     -46.981  -8.518 -31.505  0.00  0.00    +0.000 C 
ATOM      3  C   UNL     1     -46.108  -7.452 -30.841  0.00  0.00    +0.000 C 
ATOM      4  C   UNL     1     -43.916  -6.536 -30.647  0.00  0.00    +0.000 C 
ATOM      5  N   UNL     1     -44.742  -7.491 -31.379  0.00  0.00    +0.000 NA
ATOM      6  N   UNL     1     -45.220 -10.281 -31.555  0.00  0.00    +0.000 NA
ATOM      7  S   UNL     1     -44.077  -9.066 -31.068  0.00  0.00    +0.000 S 
ATOM      8  O   UNL     1     -42.814  -9.236 -31.864  0.00  0.00    +0.000 OA
ATOM      9  O   UNL     1     -43.762  -9.225 -29.605  0.00  0.00    +0.000 OA
ENDROOT
BRANCH   1  12
ATOM     10  C   UNL     1     -46.359 -12.795 -29.646  0.00  0.00    +0.000 C 
ATOM     11  C   UNL     1     -46.670 -11.487 -29.008  0.00  0.00    +0.000 A 
ATOM     12  C   UNL     1     -46.797 -10.258 -29.641  0.00  0.00    +0.000 A 
ATOM     13  C   UNL     1     -46.999  -9.345 -28.620  0.00  0.00    +0.000 A 
ATOM     14  C   UNL     1     -47.226  -9.465 -26.152  0.00  0.00    +0.000 C 
ATOM     15  N   UNL     1     -47.030 -10.041 -27.469  0.00  0.00    +0.000 N 
ATOM     16  N   UNL     1     -46.825 -11.329 -27.682  0.00  0.00    +0.000 NA
ENDBRANCH   1  12
BRANCH   3  17
ATOM     17  C   UNL     1     -46.745  -6.116 -31.076  0.00  0.00    +0.000 C 
ATOM     18  N   UNL     1     -46.665  -5.499 -32.362  0.00  0.00    +0.000 NA
ATOM     19  O   UNL     1     -47.345  -5.542 -30.128  0.00  0.00    +0.000 OA
BRANCH  18  20
ATOM     20  C   UNL     1     -47.264  -4.202 -32.633  0.00  0.00    +0.000 C 
BRANCH  20  21
ATOM     21  C   UNL     1     -46.225  -3.142 -32.548  0.00  0.00    +0.000 A 
ATOM     22  C   UNL     1     -45.490  -2.789 -33.685  0.00  0.00    +0.000 A 
ATOM     23  C   UNL     1     -44.530  -1.776 -33.612  0.00  0.00    +0.000 A 
ATOM     24  C   UNL     1     -44.306  -1.111 -32.401  0.00  0.00    +0.000 A 
ATOM     25  C   UNL     1     -45.044  -1.458 -31.266  0.00  0.00    +0.000 A 
ATOM     26  C   UNL     1     -46.006  -2.470 -31.339  0.00  0.00    +0.000 A 
ATOM     27  F   UNL     1     -43.374  -0.130 -32.330  0.00  0.00    +0.000 F 
ENDBRANCH  20  21
ENDBRANCH  18  20
ENDBRANCH   3  17
TORSDOF 4
ENDMDL
MODEL 2
REMARK VINA RESULT:      -6.3     12.773     14.873
REMARK  Name = ZINC000072335159 ZINC72335159 PubChem-95797838
REMARK  4 active torsions:
REMARK  status: ('A' for Active; 'I' for Inactive)
REMARK    1  A    between atoms: C_3  and  C_6
REMARK    2  A    between atoms: C_8  and  C_10
REMARK    3  A    between atoms: C_11  and  C_12
REMARK    4  A    between atoms: C_11  and  N_22
REMARK                            x       y       z     vdW  Elec       q    Type
REMARK                         _______ _______ _______ _____ _____    ______ ____
ROOT
ATOM      1  C   UNL     1     -44.271 -19.628 -25.806  0.00  0.00    +0.000 C 
ATOM      2  C   UNL     1     -44.768 -19.701 -24.359  0.00  0.00    +0.000 C 
ATOM      3  C   UNL     1     -44.191 -18.581 -23.492  0.00  0.00    +0.000 C 
ATOM      4  C   UNL     1     -44.088 -16.230 -23.116  0.00  0.00    +0.000 C 
ATOM      5  N   UNL     1     -44.742 -17.280 -23.891  0.00  0.00    +0.000 NA
ATOM      6  N   UNL     1     -44.721 -18.412 -26.491  0.00  0.00    +0.000 NA
ATOM      7  S   UNL     1     -44.333 -16.999 -25.556  0.00  0.00    +0.000 S 
ATOM      8  O   UNL     1     -45.132 -15.837 -26.073  0.00  0.00    +0.000 OA
ATOM      9  O   UNL     1     -42.867 -16.688 -25.692  0.00  0.00    +0.000 OA
ENDROOT
BRANCH   1  12
ATOM     10  C   UNL     1     -42.578 -19.756 -28.533  0.00  0.00    +0.000 C 
ATOM     11  C   UNL     1     -42.056 -19.902 -27.147  0.00  0.00    +0.000 A 
ATOM     12  C   UNL     1     -42.792 -19.882 -25.971  0.00  0.00    +0.000 A 
ATOM     13  C   UNL     1     -41.855 -19.965 -24.955  0.00  0.00    +0.000 A 
ATOM     14  C   UNL     1     -39.386 -20.188 -24.835  0.00  0.00    +0.000 C 
ATOM     15  N   UNL     1     -40.648 -20.072 -25.541  0.00  0.00    +0.000 N 
ATOM     16  N   UNL     1     -40.749 -20.027 -26.858  0.00  0.00    +0.000 NA
ENDBRANCH   1  12
BRANCH   3  17
ATOM     17  C   UNL     1     -44.507 -18.889 -22.060  0.00  0.00    +0.000 C 
ATOM     18  N   UNL     1     -45.743 -18.453 -21.489  0.00  0.00    +0.000 NA
ATOM     19  O   UNL     1     -43.673 -19.529 -21.366  0.00  0.00    +0.000 OA
BRANCH  18  20
ATOM     20  C   UNL     1     -46.089 -18.725 -20.103  0.00  0.00    +0.000 C 
BRANCH  20  21
ATOM     21  C   UNL     1     -46.214 -17.445 -19.357  0.00  0.00    +0.000 A 
ATOM     22  C   UNL     1     -45.072 -16.694 -19.059  0.00  0.00    +0.000 A 
ATOM     23  C   UNL     1     -45.190 -15.479 -18.379  0.00  0.00    +0.000 A 
ATOM     24  C   UNL     1     -46.452 -15.010 -17.999  0.00  0.00    +0.000 A 
ATOM     25  C   UNL     1     -47.595 -15.756 -18.303  0.00  0.00    +0.000 A 
ATOM     26  C   UNL     1     -47.477 -16.972 -18.984  0.00  0.00    +0.000 A 
ATOM     27  F   UNL     1     -46.567 -13.833 -17.339  0.00  0.00    +0.000 F 
ENDBRANCH  20  21
ENDBRANCH  18  20
ENDBRANCH   3  17
TORSDOF 4
ENDMDL
MODEL 3
REMARK VINA RESULT:      -6.2      8.128     11.517
REMARK  Name = ZINC000072335159 ZINC72335159 PubChem-95797838
REMARK  4 active torsions:
REMARK  status: ('A' for Active; 'I' for Inactive)
REMARK    1  A    between atoms: C_3  and  C_6
REMARK    2  A    between atoms: C_8  and  C_10
REMARK    3  A    between atoms: C_11  and  C_12
REMARK    4  A    between atoms: C_11  and  N_22
REMARK                            x       y       z     vdW  Elec       q    Type
REMARK                         _______ _______ _______ _____ _____    ______ ____
ROOT
ATOM      1  C   UNL     1     -45.195 -19.360 -24.456  0.00  0.00    +0.000 C 
ATOM      2  C   UNL     1     -45.542 -17.893 -24.728  0.00  0.00    +0.000 C 
ATOM      3  C   UNL     1     -44.333 -17.095 -25.218  0.00  0.00    +0.000 C 
ATOM      4  C   UNL     1     -42.723 -16.817 -26.954  0.00  0.00    +0.000 C 
ATOM      5  N   UNL     1     -43.941 -17.523 -26.566  0.00  0.00    +0.000 NA
ATOM      6  N   UNL     1     -44.796 -20.075 -25.672  0.00  0.00    +0.000 NA
ATOM      7  S   UNL     1     -43.539 -19.213 -26.509  0.00  0.00    +0.000 S 
ATOM      8  O   UNL     1     -43.432 -19.745 -27.910  0.00  0.00    +0.000 OA
ATOM      9  O   UNL     1     -42.227 -19.419 -25.802  0.00  0.00    +0.000 OA
ENDROOT
BRANCH   1  12
ATOM     10  C   UNL     1     -45.422 -18.234 -21.456  0.00  0.00    +0.000 C 
ATOM     11  C   UNL     1     -44.354 -19.115 -22.004  0.00  0.00    +0.000 A 
ATOM     12  C   UNL     1     -44.237 -19.572 -23.309  0.00  0.00    +0.000 A 
ATOM     13  C   UNL     1     -43.143 -20.420 -23.299  0.00  0.00    +0.000 A 
ATOM     14  C   UNL     1     -41.484 -21.154 -21.605  0.00  0.00    +0.000 C 
ATOM     15  N   UNL     1     -42.643 -20.403 -22.049  0.00  0.00    +0.000 N 
ATOM     16  N   UNL     1     -43.364 -19.630 -21.256  0.00  0.00    +0.000 NA
ENDBRANCH   1  12
BRANCH   3  17
ATOM     17  C   UNL     1     -44.694 -15.640 -25.194  0.00  0.00    +0.000 C 
ATOM     18  N   UNL     1     -45.740 -15.147 -26.033  0.00  0.00    +0.000 NA
ATOM     19  O   UNL     1     -44.063 -14.859 -24.433  0.00  0.00    +0.000 OA
BRANCH  18  20
ATOM     20  C   UNL     1     -46.120 -13.743 -26.046  0.00  0.00    +0.000 C 
BRANCH  20  21
ATOM     21  C   UNL     1     -46.113 -13.235 -27.444  0.00  0.00    +0.000 A 
ATOM     22  C   UNL     1     -45.474 -13.965 -28.451  0.00  0.00    +0.000 A 
ATOM     23  C   UNL     1     -45.487 -13.500 -29.769  0.00  0.00    +0.000 A 
ATOM     24  C   UNL     1     -46.145 -12.305 -30.082  0.00  0.00    +0.000 A 
ATOM     25  C   UNL     1     -46.791 -11.579 -29.078  0.00  0.00    +0.000 A 
ATOM     26  C   UNL     1     -46.778 -12.044 -27.759  0.00  0.00    +0.000 A 
ATOM     27  F   UNL     1     -46.157 -11.854 -31.360  0.00  0.00    +0.000 F 
ENDBRANCH  20  21
ENDBRANCH  18  20
ENDBRANCH   3  17
TORSDOF 4
ENDMDL
