MODEL 1
REMARK VINA RESULT:      -7.4      0.000      0.000
REMARK  Name = ZINC000020924280 ZINC20924280 PubChem-92705263
REMARK  4 active torsions:
REMARK  status: ('A' for Active; 'I' for Inactive)
REMARK    1  A    between atoms: C_5  and  C_8
REMARK    2  A    between atoms: C_12  and  C_13
REMARK    3  A    between atoms: C_15  and  O_24
REMARK    4  A    between atoms: C_17  and  O_23
REMARK                            x       y       z     vdW  Elec       q    Type
REMARK                         _______ _______ _______ _____ _____    ______ ____
ROOT
ATOM      1  C   UNL     1     -47.136  -4.032 -31.450  0.00  0.00    +0.000 C 
ATOM      2  C   UNL     1     -47.000  -5.401 -32.132  0.00  0.00    +0.000 C 
ATOM      3  C   UNL     1     -46.025  -6.267 -31.404  0.00  0.00    +0.000 C 
ATOM      4  C   UNL     1     -46.534  -5.052 -29.310  0.00  0.00    +0.000 C 
ATOM      5  C   UNL     1     -47.149  -4.053 -27.040  0.00  0.00    +0.000 C 
ATOM      6  O   UNL     1     -45.372  -7.147 -32.022  0.00  0.00    +0.000 OA
ATOM      7  O   UNL     1     -47.756  -3.073 -27.548  0.00  0.00    +0.000 OA
ATOM      8  N   UNL     1     -45.857  -6.109 -29.997  0.00  0.00    +0.000 NA
ATOM      9  N   UNL     1     -47.148  -4.122 -29.984  0.00  0.00    +0.000 NA
ATOM     10  N   UNL     1     -46.532  -5.043 -27.878  0.00  0.00    +0.000 NA
ENDROOT
BRANCH   1  15
ATOM     11  C   UNL     1     -43.067  -0.377 -33.341  0.00  0.00    +0.000 C 
ATOM     12  C   UNL     1     -44.112  -1.311 -32.847  0.00  0.00    +0.000 A 
ATOM     13  C   UNL     1     -44.677  -2.249 -33.717  0.00  0.00    +0.000 A 
ATOM     14  C   UNL     1     -45.661  -3.128 -33.254  0.00  0.00    +0.000 A 
ATOM     15  C   UNL     1     -46.085  -3.072 -31.921  0.00  0.00    +0.000 A 
ATOM     16  C   UNL     1     -45.513  -2.131 -31.051  0.00  0.00    +0.000 A 
ATOM     17  C   UNL     1     -44.530  -1.252 -31.515  0.00  0.00    +0.000 A 
ENDBRANCH   1  15
BRANCH   5  18
ATOM     18  C   UNL     1     -47.067  -4.184 -25.574  0.00  0.00    +0.000 A 
ATOM     19  C   UNL     1     -47.212  -3.058 -24.752  0.00  0.00    +0.000 A 
ATOM     20  C   UNL     1     -47.136  -3.174 -23.361  0.00  0.00    +0.000 A 
ATOM     21  C   UNL     1     -46.913  -4.436 -22.786  0.00  0.00    +0.000 A 
ATOM     22  C   UNL     1     -46.767  -5.568 -23.591  0.00  0.00    +0.000 A 
ATOM     23  C   UNL     1     -46.846  -5.436 -24.986  0.00  0.00    +0.000 A 
BRANCH  22  25
ATOM     24  C   UNL     1     -45.554  -7.008 -21.987  0.00  0.00    +0.000 C 
ATOM     25  O   UNL     1     -46.546  -6.807 -22.984  0.00  0.00    +0.000 OA
ENDBRANCH  22  25
BRANCH  20  27
ATOM     26  C   UNL     1     -46.991  -2.004 -21.187  0.00  0.00    +0.000 C 
ATOM     27  O   UNL     1     -47.285  -2.027 -22.577  0.00  0.00    +0.000 OA
ENDBRANCH  20  27
ENDBRANCH   5  18
TORSDOF 4
ENDMDL
MODEL 2
REMARK VINA RESULT:      -7.2      0.844      2.647
REMARK  Name = ZINC000020924280 ZINC20924280 PubChem-92705263
REMARK  4 active torsions:
REMARK  status: ('A' for Active; 'I' for Inactive)
REMARK    1  A    between atoms: C_5  and  C_8
REMARK    2  A    between atoms: C_12  and  C_13
REMARK    3  A    between atoms: C_15  and  O_24
REMARK    4  A    between atoms: C_17  and  O_23
REMARK                            x       y       z     vdW  Elec       q    Type
REMARK                         _______ _______ _______ _____ _____    ______ ____
ROOT
ATOM      1  C   UNL     1     -47.147  -4.142 -31.703  0.00  0.00    +0.000 C 
ATOM      2  C   UNL     1     -47.026  -5.451 -32.495  0.00  0.00    +0.000 C 
ATOM      3  C   UNL     1     -46.044  -6.377 -31.854  0.00  0.00    +0.000 C 
ATOM      4  C   UNL     1     -46.520  -5.334 -29.661  0.00  0.00    +0.000 C 
ATOM      5  C   UNL     1     -47.100  -4.520 -27.309  0.00  0.00    +0.000 C 
ATOM      6  O   UNL     1     -45.403  -7.205 -32.550  0.00  0.00    +0.000 OA
ATOM      7  O   UNL     1     -47.711  -3.500 -27.728  0.00  0.00    +0.000 OA
ATOM      8  N   UNL     1     -45.857  -6.333 -30.441  0.00  0.00    +0.000 NA
ATOM      9  N   UNL     1     -47.140  -4.351 -30.249  0.00  0.00    +0.000 NA
ATOM     10  N   UNL     1     -46.499  -5.441 -28.234  0.00  0.00    +0.000 NA
ENDROOT
BRANCH   1  15
ATOM     11  C   UNL     1     -43.119  -0.264 -33.196  0.00  0.00    +0.000 C 
ATOM     12  C   UNL     1     -44.153  -1.264 -32.821  0.00  0.00    +0.000 A 
ATOM     13  C   UNL     1     -44.626  -1.319 -31.506  0.00  0.00    +0.000 A 
ATOM     14  C   UNL     1     -45.598  -2.260 -31.152  0.00  0.00    +0.000 A 
ATOM     15  C   UNL     1     -46.100  -3.149 -32.109  0.00  0.00    +0.000 A 
ATOM     16  C   UNL     1     -45.625  -3.087 -33.428  0.00  0.00    +0.000 A 
ATOM     17  C   UNL     1     -44.653  -2.148 -33.782  0.00  0.00    +0.000 A 
ENDBRANCH   1  15
BRANCH   5  18
ATOM     18  C   UNL     1     -46.999  -4.769 -25.860  0.00  0.00    +0.000 A 
ATOM     19  C   UNL     1     -46.613  -6.029 -25.381  0.00  0.00    +0.000 A 
ATOM     20  C   UNL     1     -46.514  -6.271 -24.009  0.00  0.00    +0.000 A 
ATOM     21  C   UNL     1     -46.806  -5.238 -23.103  0.00  0.00    +0.000 A 
ATOM     22  C   UNL     1     -47.192  -3.977 -23.564  0.00  0.00    +0.000 A 
ATOM     23  C   UNL     1     -47.286  -3.748 -24.945  0.00  0.00    +0.000 A 
BRANCH  22  25
ATOM     24  C   UNL     1     -47.361  -1.591 -22.937  0.00  0.00    +0.000 C 
ATOM     25  O   UNL     1     -47.475  -2.974 -22.633  0.00  0.00    +0.000 OA
ENDBRANCH  22  25
BRANCH  20  27
ATOM     26  C   UNL     1     -46.535  -8.735 -24.225  0.00  0.00    +0.000 C 
ATOM     27  O   UNL     1     -46.126  -7.542 -23.572  0.00  0.00    +0.000 OA
ENDBRANCH  20  27
ENDBRANCH   5  18
TORSDOF 4
ENDMDL
MODEL 3
REMARK VINA RESULT:      -6.9      1.846      3.408
REMARK  Name = ZINC000020924280 ZINC20924280 PubChem-92705263
REMARK  4 active torsions:
REMARK  status: ('A' for Active; 'I' for Inactive)
REMARK    1  A    between atoms: C_5  and  C_8
REMARK    2  A    between atoms: C_12  and  C_13
REMARK    3  A    between atoms: C_15  and  O_24
REMARK    4  A    between atoms: C_17  and  O_23
REMARK                            x       y       z     vdW  Elec       q    Type
REMARK                         _______ _______ _______ _____ _____    ______ ____
ROOT
ATOM      1  C   UNL     1     -46.470  -3.000 -32.618  0.00  0.00    +0.000 C 
ATOM      2  C   UNL     1     -46.739  -3.967 -33.780  0.00  0.00    +0.000 C 
ATOM      3  C   UNL     1     -46.120  -5.302 -33.520  0.00  0.00    +0.000 C 
ATOM      4  C   UNL     1     -46.320  -4.902 -31.087  0.00  0.00    +0.000 C 
ATOM      5  C   UNL     1     -46.696  -4.725 -28.566  0.00  0.00    +0.000 C 
ATOM      6  O   UNL     1     -45.749  -6.027 -34.479  0.00  0.00    +0.000 OA
ATOM      7  O   UNL     1     -46.941  -3.489 -28.610  0.00  0.00    +0.000 OA
ATOM      8  N   UNL     1     -45.978  -5.761 -32.178  0.00  0.00    +0.000 NA
ATOM      9  N   UNL     1     -46.578  -3.643 -31.303  0.00  0.00    +0.000 NA
ATOM     10  N   UNL     1     -46.383  -5.450 -29.766  0.00  0.00    +0.000 NA
ENDROOT
BRANCH   1  15
ATOM     11  C   UNL     1     -41.411  -0.244 -33.169  0.00  0.00    +0.000 C 
ATOM     12  C   UNL     1     -42.707  -0.959 -33.033  0.00  0.00    +0.000 A 
ATOM     13  C   UNL     1     -43.708  -0.437 -32.207  0.00  0.00    +0.000 A 
ATOM     14  C   UNL     1     -44.927  -1.109 -32.078  0.00  0.00    +0.000 A 
ATOM     15  C   UNL     1     -45.150  -2.305 -32.770  0.00  0.00    +0.000 A 
ATOM     16  C   UNL     1     -44.143  -2.823 -33.599  0.00  0.00    +0.000 A 
ATOM     17  C   UNL     1     -42.924  -2.152 -33.728  0.00  0.00    +0.000 A 
ENDBRANCH   1  15
BRANCH   5  18
ATOM     18  C   UNL     1     -46.729  -5.432 -27.273  0.00  0.00    +0.000 A 
ATOM     19  C   UNL     1     -46.527  -6.818 -27.216  0.00  0.00    +0.000 A 
ATOM     20  C   UNL     1     -46.555  -7.494 -25.994  0.00  0.00    +0.000 A 
ATOM     21  C   UNL     1     -46.790  -6.772 -24.812  0.00  0.00    +0.000 A 
ATOM     22  C   UNL     1     -46.993  -5.391 -24.851  0.00  0.00    +0.000 A 
ATOM     23  C   UNL     1     -46.961  -4.725 -26.086  0.00  0.00    +0.000 A 
BRANCH  22  25
ATOM     24  C   UNL     1     -47.341  -3.292 -23.589  0.00  0.00    +0.000 C 
ATOM     25  O   UNL     1     -47.224  -4.706 -23.655  0.00  0.00    +0.000 OA
ENDBRANCH  22  25
BRANCH  20  27
ATOM     26  C   UNL     1     -47.309  -9.800 -26.475  0.00  0.00    +0.000 C 
ATOM     27  O   UNL     1     -46.350  -8.877 -25.980  0.00  0.00    +0.000 OA
ENDBRANCH  20  27
ENDBRANCH   5  18
TORSDOF 4
ENDMDL
