MODEL 1
REMARK VINA RESULT:      -6.7      0.000      0.000
REMARK  Name = ZINC000096181797 ZINC96181797 PubChem-97457627
REMARK  2 active torsions:
REMARK  status: ('A' for Active; 'I' for Inactive)
REMARK    1  A    between atoms: C_5  and  C_6
REMARK    2  A    between atoms: C_7  and  C_11
REMARK                            x       y       z     vdW  Elec       q    Type
REMARK                         _______ _______ _______ _____ _____    ______ ____
ROOT
ATOM      1  C   UNL     1     -45.751 -18.252 -20.307  0.00  0.00    +0.000 C 
ATOM      2  C   UNL     1     -44.520 -17.899 -21.166  0.00  0.00    +0.000 C 
ATOM      3  C   UNL     1     -43.274 -19.115 -19.349  0.00  0.00    +0.000 C 
ATOM      4  C   UNL     1     -44.579 -19.426 -18.689  0.00  0.00    +0.000 C 
ATOM      5  C   UNL     1     -42.005 -17.779 -21.046  0.00  0.00    +0.000 C 
ATOM      6  N   UNL     1     -43.264 -18.277 -20.510  0.00  0.00    +0.000 N 
ATOM      7  O   UNL     1     -42.200 -19.536 -18.844  0.00  0.00    +0.000 OA
ATOM      8  O   UNL     1     -45.623 -19.495 -19.637  0.00  0.00    +0.000 OA
ENDROOT
BRANCH   1  13
ATOM      9  C   UNL     1     -45.268 -11.642 -16.861  0.00  0.00    +0.000 C 
ATOM     10  C   UNL     1     -45.652 -12.978 -17.387  0.00  0.00    +0.000 A 
ATOM     11  C   UNL     1     -44.907 -13.733 -18.273  0.00  0.00    +0.000 A 
ATOM     12  C   UNL     1     -45.711 -14.848 -18.417  0.00  0.00    +0.000 A 
ATOM     13  C   UNL     1     -46.203 -17.132 -19.414  0.00  0.00    +0.000 C 
ATOM     14  N   UNL     1     -46.830 -14.750 -17.676  0.00  0.00    +0.000 NA
ATOM     15  N   UNL     1     -45.388 -15.965 -19.251  0.00  0.00    +0.000 NA
ATOM     16  O   UNL     1     -46.758 -13.605 -17.067  0.00  0.00    +0.000 OA
ATOM     17  O   UNL     1     -47.291 -17.250 -18.789  0.00  0.00    +0.000 OA
ENDBRANCH   1  13
BRANCH   2  18
ATOM     18  C   UNL     1     -44.625 -18.534 -22.520  0.00  0.00    +0.000 A 
ATOM     19  C   UNL     1     -43.832 -19.649 -22.814  0.00  0.00    +0.000 A 
ATOM     20  C   UNL     1     -43.918 -20.262 -24.068  0.00  0.00    +0.000 A 
ATOM     21  C   UNL     1     -44.801 -19.764 -25.030  0.00  0.00    +0.000 A 
ATOM     22  C   UNL     1     -45.598 -18.653 -24.741  0.00  0.00    +0.000 A 
ATOM     23  C   UNL     1     -45.512 -18.039 -23.488  0.00  0.00    +0.000 A 
ATOM     24  F   UNL     1     -44.884 -20.359 -26.244  0.00  0.00    +0.000 F 
ENDBRANCH   2  18
TORSDOF 2
ENDMDL
MODEL 2
REMARK VINA RESULT:      -6.3     16.187     17.413
REMARK  Name = ZINC000096181797 ZINC96181797 PubChem-97457627
REMARK  2 active torsions:
REMARK  status: ('A' for Active; 'I' for Inactive)
REMARK    1  A    between atoms: C_5  and  C_6
REMARK    2  A    between atoms: C_7  and  C_11
REMARK                            x       y       z     vdW  Elec       q    Type
REMARK                         _______ _______ _______ _____ _____    ______ ____
ROOT
ATOM      1  C   UNL     1     -45.528  -3.881 -30.868  0.00  0.00    +0.000 C 
ATOM      2  C   UNL     1     -44.499  -4.256 -31.953  0.00  0.00    +0.000 C 
ATOM      3  C   UNL     1     -46.554  -4.866 -33.272  0.00  0.00    +0.000 C 
ATOM      4  C   UNL     1     -47.400  -4.385 -32.138  0.00  0.00    +0.000 C 
ATOM      5  C   UNL     1     -44.292  -5.547 -34.109  0.00  0.00    +0.000 C 
ATOM      6  N   UNL     1     -45.130  -4.886 -33.117  0.00  0.00    +0.000 N 
ATOM      7  O   UNL     1     -47.098  -5.305 -34.319  0.00  0.00    +0.000 OA
ATOM      8  O   UNL     1     -46.740  -3.376 -31.404  0.00  0.00    +0.000 OA
ENDROOT
BRANCH   1  13
ATOM      9  C   UNL     1     -47.405  -6.655 -24.192  0.00  0.00    +0.000 C 
ATOM     10  C   UNL     1     -46.959  -6.417 -25.590  0.00  0.00    +0.000 A 
ATOM     11  C   UNL     1     -46.941  -5.190 -26.226  0.00  0.00    +0.000 A 
ATOM     12  C   UNL     1     -46.452  -5.540 -27.470  0.00  0.00    +0.000 A 
ATOM     13  C   UNL     1     -45.729  -4.949 -29.833  0.00  0.00    +0.000 C 
ATOM     14  N   UNL     1     -46.207  -6.862 -27.552  0.00  0.00    +0.000 NA
ATOM     15  N   UNL     1     -46.236  -4.611 -28.536  0.00  0.00    +0.000 NA
ATOM     16  O   UNL     1     -46.526  -7.357 -26.395  0.00  0.00    +0.000 OA
ATOM     17  O   UNL     1     -45.416  -6.137 -30.112  0.00  0.00    +0.000 OA
ENDBRANCH   1  13
BRANCH   2  18
ATOM     18  C   UNL     1     -43.706  -3.052 -32.365  0.00  0.00    +0.000 A 
ATOM     19  C   UNL     1     -42.309  -3.104 -32.310  0.00  0.00    +0.000 A 
ATOM     20  C   UNL     1     -41.549  -1.995 -32.697  0.00  0.00    +0.000 A 
ATOM     21  C   UNL     1     -42.185  -0.832 -33.141  0.00  0.00    +0.000 A 
ATOM     22  C   UNL     1     -43.580  -0.776 -33.201  0.00  0.00    +0.000 A 
ATOM     23  C   UNL     1     -44.341  -1.884 -32.814  0.00  0.00    +0.000 A 
ATOM     24  F   UNL     1     -41.448   0.241 -33.515  0.00  0.00    +0.000 F 
ENDBRANCH   2  18
TORSDOF 2
ENDMDL
MODEL 3
REMARK VINA RESULT:      -6.2     16.293     17.644
REMARK  Name = ZINC000096181797 ZINC96181797 PubChem-97457627
REMARK  2 active torsions:
REMARK  status: ('A' for Active; 'I' for Inactive)
REMARK    1  A    between atoms: C_5  and  C_6
REMARK    2  A    between atoms: C_7  and  C_11
REMARK                            x       y       z     vdW  Elec       q    Type
REMARK                         _______ _______ _______ _____ _____    ______ ____
ROOT
ATOM      1  C   UNL     1     -45.621  -3.736 -31.079  0.00  0.00    +0.000 C 
ATOM      2  C   UNL     1     -44.487  -4.153 -32.036  0.00  0.00    +0.000 C 
ATOM      3  C   UNL     1     -46.397  -4.818 -33.534  0.00  0.00    +0.000 C 
ATOM      4  C   UNL     1     -47.354  -4.294 -32.513  0.00  0.00    +0.000 C 
ATOM      5  C   UNL     1     -44.064  -5.528 -34.106  0.00  0.00    +0.000 C 
ATOM      6  N   UNL     1     -44.997  -4.830 -33.233  0.00  0.00    +0.000 N 
ATOM      7  O   UNL     1     -46.832  -5.300 -34.613  0.00  0.00    +0.000 OA
ATOM      8  O   UNL     1     -46.771  -3.255 -31.756  0.00  0.00    +0.000 OA
ENDROOT
BRANCH   1  13
ATOM      9  C   UNL     1     -45.340 -10.429 -27.775  0.00  0.00    +0.000 C 
ATOM     10  C   UNL     1     -45.592  -9.021 -28.178  0.00  0.00    +0.000 A 
ATOM     11  C   UNL     1     -45.064  -8.403 -29.296  0.00  0.00    +0.000 A 
ATOM     12  C   UNL     1     -45.611  -7.138 -29.186  0.00  0.00    +0.000 A 
ATOM     13  C   UNL     1     -45.930  -4.762 -30.027  0.00  0.00    +0.000 C 
ATOM     14  N   UNL     1     -46.391  -7.029 -28.094  0.00  0.00    +0.000 NA
ATOM     15  N   UNL     1     -45.374  -6.079 -30.119  0.00  0.00    +0.000 NA
ATOM     16  O   UNL     1     -46.354  -8.189 -27.511  0.00  0.00    +0.000 OA
ATOM     17  O   UNL     1     -46.708  -4.456 -29.084  0.00  0.00    +0.000 OA
ENDBRANCH   1  13
BRANCH   2  18
ATOM     18  C   UNL     1     -43.654  -2.965 -32.413  0.00  0.00    +0.000 A 
ATOM     19  C   UNL     1     -42.260  -3.051 -32.316  0.00  0.00    +0.000 A 
ATOM     20  C   UNL     1     -41.463  -1.958 -32.669  0.00  0.00    +0.000 A 
ATOM     21  C   UNL     1     -42.056  -0.776 -33.122  0.00  0.00    +0.000 A 
ATOM     22  C   UNL     1     -43.447  -0.686 -33.223  0.00  0.00    +0.000 A 
ATOM     23  C   UNL     1     -44.246  -1.778 -32.870  0.00  0.00    +0.000 A 
ATOM     24  F   UNL     1     -41.282   0.282 -33.463  0.00  0.00    +0.000 F 
ENDBRANCH   2  18
TORSDOF 2
ENDMDL
