MODEL 1
REMARK VINA RESULT:      -5.8      0.000      0.000
REMARK  Name = ZINC000065307388 ZINC65307388 ChemDiv-P103-1197 MolPort-010-961-951 PubChem-53200924
REMARK  7 active torsions:
REMARK  status: ('A' for Active; 'I' for Inactive)
REMARK    1  A    between atoms: C_2  and  C_3
REMARK    2  A    between atoms: C_4  and  C_5
REMARK    3  A    between atoms: C_6  and  S_25
REMARK    4  A    between atoms: C_7  and  C_8
REMARK    5  A    between atoms: C_7  and  S_25
REMARK    6  A    between atoms: C_9  and  C_10
REMARK    7  A    between atoms: C_9  and  N_20
REMARK                            x       y       z     vdW  Elec       q    Type
REMARK                         _______ _______ _______ _____ _____    ______ ____
ROOT
ATOM      1  C   UNL     1     -45.474 -14.324 -26.271  0.00  0.00    +0.000 A 
ATOM      2  C   UNL     1     -44.523 -15.204 -26.852  0.00  0.00    +0.000 A 
ATOM      3  C   UNL     1     -44.868 -14.216 -28.993  0.00  0.00    +0.000 A 
ATOM      4  C   UNL     1     -45.810 -13.337 -28.468  0.00  0.00    +0.000 A 
ATOM      5  C   UNL     1     -46.108 -13.397 -27.109  0.00  0.00    +0.000 A 
ATOM      6  N   UNL     1     -44.254 -15.117 -28.184  0.00  0.00    +0.000 NA
ENDROOT
BRANCH   1   8
ATOM      7  C   UNL     1     -46.006 -13.781 -22.822  0.00  0.00    +0.000 A 
ATOM      8  C   UNL     1     -45.847 -14.323 -24.835  0.00  0.00    +0.000 A 
ATOM      9  N   UNL     1     -45.435 -13.369 -23.968  0.00  0.00    +0.000 NA
ATOM     10  N   UNL     1     -46.621 -15.249 -24.234  0.00  0.00    +0.000 NA
ATOM     11  O   UNL     1     -46.697 -14.879 -22.993  0.00  0.00    +0.000 OA
BRANCH   7  13
ATOM     12  C   UNL     1     -46.959 -13.511 -20.568  0.00  0.00    +0.000 C 
ATOM     13  C   UNL     1     -45.871 -13.065 -21.524  0.00  0.00    +0.000 C 
ENDBRANCH   7  13
ENDBRANCH   1   8
BRANCH   2  14
ATOM     14  S   UNL     1     -43.631 -16.446 -25.913  0.00  0.00    +0.000 S 
BRANCH  14  15
ATOM     15  C   UNL     1     -44.897 -17.710 -26.237  0.00  0.00    +0.000 C 
BRANCH  15  16
ATOM     16  C   UNL     1     -44.870 -18.746 -25.169  0.00  0.00    +0.000 C 
ATOM     17  N   UNL     1     -44.058 -18.551 -24.011  0.00  0.00    +0.000 NA
ATOM     18  O   UNL     1     -45.556 -19.793 -25.302  0.00  0.00    +0.000 OA
BRANCH  17  19
ATOM     19  C   UNL     1     -43.997 -19.532 -22.940  0.00  0.00    +0.000 C 
BRANCH  19  20
ATOM     20  C   UNL     1     -44.514 -18.932 -21.681  0.00  0.00    +0.000 A 
ATOM     21  C   UNL     1     -44.834 -19.080 -19.331  0.00  0.00    +0.000 A 
ATOM     22  C   UNL     1     -45.517 -17.862 -19.326  0.00  0.00    +0.000 A 
ATOM     23  C   UNL     1     -45.698 -17.178 -20.529  0.00  0.00    +0.000 A 
ATOM     24  C   UNL     1     -45.199 -17.714 -21.717  0.00  0.00    +0.000 A 
ATOM     25  N   UNL     1     -44.353 -19.588 -20.499  0.00  0.00    +0.000 NA
ENDBRANCH  19  20
ENDBRANCH  17  19
ENDBRANCH  15  16
ENDBRANCH  14  15
ENDBRANCH   2  14
TORSDOF 7
ENDMDL
MODEL 2
REMARK VINA RESULT:      -5.8     10.472     13.320
REMARK  Name = ZINC000065307388 ZINC65307388 ChemDiv-P103-1197 MolPort-010-961-951 PubChem-53200924
REMARK  7 active torsions:
REMARK  status: ('A' for Active; 'I' for Inactive)
REMARK    1  A    between atoms: C_2  and  C_3
REMARK    2  A    between atoms: C_4  and  C_5
REMARK    3  A    between atoms: C_6  and  S_25
REMARK    4  A    between atoms: C_7  and  C_8
REMARK    5  A    between atoms: C_7  and  S_25
REMARK    6  A    between atoms: C_9  and  C_10
REMARK    7  A    between atoms: C_9  and  N_20
REMARK                            x       y       z     vdW  Elec       q    Type
REMARK                         _______ _______ _______ _____ _____    ______ ____
ROOT
ATOM      1  C   UNL     1     -46.278  -6.133 -33.729  0.00  0.00    +0.000 A 
ATOM      2  C   UNL     1     -46.712  -6.931 -32.639  0.00  0.00    +0.000 A 
ATOM      3  C   UNL     1     -46.501  -8.905 -33.957  0.00  0.00    +0.000 A 
ATOM      4  C   UNL     1     -46.075  -8.162 -35.054  0.00  0.00    +0.000 A 
ATOM      5  C   UNL     1     -45.966  -6.778 -34.933  0.00  0.00    +0.000 A 
ATOM      6  N   UNL     1     -46.806  -8.281 -32.791  0.00  0.00    +0.000 NA
ENDROOT
BRANCH   1   8
ATOM      7  C   UNL     1     -45.308  -2.742 -33.528  0.00  0.00    +0.000 A 
ATOM      8  C   UNL     1     -46.134  -4.656 -33.682  0.00  0.00    +0.000 A 
ATOM      9  N   UNL     1     -44.945  -4.038 -33.502  0.00  0.00    +0.000 NA
ATOM     10  N   UNL     1     -47.147  -3.775 -33.809  0.00  0.00    +0.000 NA
ATOM     11  O   UNL     1     -46.597  -2.605 -33.710  0.00  0.00    +0.000 OA
BRANCH   7  13
ATOM     12  C   UNL     1     -44.510  -0.978 -32.007  0.00  0.00    +0.000 C 
ATOM     13  C   UNL     1     -44.354  -1.611 -33.376  0.00  0.00    +0.000 C 
ENDBRANCH   7  13
ENDBRANCH   1   8
BRANCH   2  14
ATOM     14  S   UNL     1     -47.150  -6.253 -31.036  0.00  0.00    +0.000 S 
BRANCH  14  15
ATOM     15  C   UNL     1     -47.501  -7.899 -30.350  0.00  0.00    +0.000 C 
BRANCH  15  16
ATOM     16  C   UNL     1     -47.187  -7.925 -28.896  0.00  0.00    +0.000 C 
ATOM     17  N   UNL     1     -46.524  -6.813 -28.293  0.00  0.00    +0.000 NA
ATOM     18  O   UNL     1     -47.498  -8.934 -28.210  0.00  0.00    +0.000 OA
BRANCH  17  19
ATOM     19  C   UNL     1     -46.195  -6.788 -26.877  0.00  0.00    +0.000 C 
BRANCH  19  20
ATOM     20  C   UNL     1     -46.641  -5.500 -26.281  0.00  0.00    +0.000 A 
ATOM     21  C   UNL     1     -47.201  -4.230 -24.353  0.00  0.00    +0.000 A 
ATOM     22  C   UNL     1     -47.525  -3.127 -25.148  0.00  0.00    +0.000 A 
ATOM     23  C   UNL     1     -47.404  -3.229 -26.535  0.00  0.00    +0.000 A 
ATOM     24  C   UNL     1     -46.963  -4.422 -27.110  0.00  0.00    +0.000 A 
ATOM     25  N   UNL     1     -46.773  -5.385 -24.931  0.00  0.00    +0.000 NA
ENDBRANCH  19  20
ENDBRANCH  17  19
ENDBRANCH  15  16
ENDBRANCH  14  15
ENDBRANCH   2  14
TORSDOF 7
ENDMDL
MODEL 3
REMARK VINA RESULT:      -5.4      8.243     12.828
REMARK  Name = ZINC000065307388 ZINC65307388 ChemDiv-P103-1197 MolPort-010-961-951 PubChem-53200924
REMARK  7 active torsions:
REMARK  status: ('A' for Active; 'I' for Inactive)
REMARK    1  A    between atoms: C_2  and  C_3
REMARK    2  A    between atoms: C_4  and  C_5
REMARK    3  A    between atoms: C_6  and  S_25
REMARK    4  A    between atoms: C_7  and  C_8
REMARK    5  A    between atoms: C_7  and  S_25
REMARK    6  A    between atoms: C_9  and  C_10
REMARK    7  A    between atoms: C_9  and  N_20
REMARK                            x       y       z     vdW  Elec       q    Type
REMARK                         _______ _______ _______ _____ _____    ______ ____
ROOT
ATOM      1  C   UNL     1     -46.254  -9.166 -26.492  0.00  0.00    +0.000 A 
ATOM      2  C   UNL     1     -46.579  -8.134 -27.410  0.00  0.00    +0.000 A 
ATOM      3  C   UNL     1     -45.845  -6.479 -25.860  0.00  0.00    +0.000 A 
ATOM      4  C   UNL     1     -45.516  -7.457 -24.927  0.00  0.00    +0.000 A 
ATOM      5  C   UNL     1     -45.723  -8.797 -25.248  0.00  0.00    +0.000 A 
ATOM      6  N   UNL     1     -46.362  -6.835 -27.064  0.00  0.00    +0.000 NA
ENDROOT
BRANCH   1   8
ATOM      7  C   UNL     1     -46.110 -12.582 -27.381  0.00  0.00    +0.000 A 
ATOM      8  C   UNL     1     -46.442 -10.614 -26.757  0.00  0.00    +0.000 A 
ATOM      9  N   UNL     1     -45.503 -11.381 -27.358  0.00  0.00    +0.000 NA
ATOM     10  N   UNL     1     -47.545 -11.323 -26.441  0.00  0.00    +0.000 NA
ATOM     11  O   UNL     1     -47.301 -12.532 -26.841  0.00  0.00    +0.000 OA
BRANCH   7  13
ATOM     12  C   UNL     1     -45.374 -13.689 -29.452  0.00  0.00    +0.000 C 
ATOM     13  C   UNL     1     -45.492 -13.812 -27.946  0.00  0.00    +0.000 C 
ENDBRANCH   7  13
ENDBRANCH   1   8
BRANCH   2  14
ATOM     14  S   UNL     1     -47.268  -8.446 -29.037  0.00  0.00    +0.000 S 
BRANCH  14  15
ATOM     15  C   UNL     1     -45.974  -7.468 -29.857  0.00  0.00    +0.000 C 
BRANCH  15  16
ATOM     16  C   UNL     1     -46.574  -6.612 -30.916  0.00  0.00    +0.000 C 
ATOM     17  N   UNL     1     -46.495  -5.190 -30.809  0.00  0.00    +0.000 NA
ATOM     18  O   UNL     1     -47.158  -7.150 -31.894  0.00  0.00    +0.000 OA
BRANCH  17  19
ATOM     19  C   UNL     1     -47.064  -4.310 -31.816  0.00  0.00    +0.000 C 
BRANCH  19  20
ATOM     20  C   UNL     1     -46.147  -3.165 -32.057  0.00  0.00    +0.000 A 
ATOM     21  C   UNL     1     -45.035  -1.234 -31.233  0.00  0.00    +0.000 A 
ATOM     22  C   UNL     1     -44.483  -0.988 -32.493  0.00  0.00    +0.000 A 
ATOM     23  C   UNL     1     -44.781  -1.853 -33.547  0.00  0.00    +0.000 A 
ATOM     24  C   UNL     1     -45.621  -2.948 -33.334  0.00  0.00    +0.000 A 
ATOM     25  N   UNL     1     -45.851  -2.306 -31.043  0.00  0.00    +0.000 NA
ENDBRANCH  19  20
ENDBRANCH  17  19
ENDBRANCH  15  16
ENDBRANCH  14  15
ENDBRANCH   2  14
TORSDOF 7
ENDMDL
