MODEL 1
REMARK VINA RESULT:      -6.8      0.000      0.000
REMARK  Name = ZINC000020135762 ZINC20135762 PubChem-92655563
REMARK  6 active torsions:
REMARK  status: ('A' for Active; 'I' for Inactive)
REMARK    1  A    between atoms: C_2  and  O_22
REMARK    2  A    between atoms: C_5  and  C_8
REMARK    3  A    between atoms: C_12  and  C_13
REMARK    4  A    between atoms: C_15  and  O_27
REMARK    5  A    between atoms: C_16  and  O_26
REMARK    6  A    between atoms: C_17  and  O_25
REMARK                            x       y       z     vdW  Elec       q    Type
REMARK                         _______ _______ _______ _____ _____    ______ ____
ROOT
ATOM      1  C   UNL     1     -46.864  -3.122 -32.232  0.00  0.00    +0.000 C 
ATOM      2  C   UNL     1     -47.160  -4.189 -33.296  0.00  0.00    +0.000 C 
ATOM      3  C   UNL     1     -46.484  -5.479 -32.963  0.00  0.00    +0.000 C 
ATOM      4  C   UNL     1     -46.569  -4.885 -30.564  0.00  0.00    +0.000 C 
ATOM      5  C   UNL     1     -46.819  -4.514 -28.048  0.00  0.00    +0.000 C 
ATOM      6  O   UNL     1     -46.140  -6.269 -33.879  0.00  0.00    +0.000 OA
ATOM      7  O   UNL     1     -47.107  -3.292 -28.179  0.00  0.00    +0.000 OA
ATOM      8  N   UNL     1     -46.257  -5.822 -31.598  0.00  0.00    +0.000 NA
ATOM      9  N   UNL     1     -46.882  -3.657 -30.865  0.00  0.00    +0.000 NA
ATOM     10  N   UNL     1     -46.546  -5.324 -29.200  0.00  0.00    +0.000 NA
ENDROOT
BRANCH   1  14
ATOM     11  C   UNL     1     -43.185  -1.015 -33.002  0.00  0.00    +0.000 A 
ATOM     12  C   UNL     1     -43.622  -2.001 -33.891  0.00  0.00    +0.000 A 
ATOM     13  C   UNL     1     -44.813  -2.692 -33.649  0.00  0.00    +0.000 A 
ATOM     14  C   UNL     1     -45.579  -2.403 -32.511  0.00  0.00    +0.000 A 
ATOM     15  C   UNL     1     -45.146  -1.414 -31.622  0.00  0.00    +0.000 A 
ATOM     16  C   UNL     1     -43.955  -0.723 -31.864  0.00  0.00    +0.000 A 
BRANCH  11  18
ATOM     17  C   UNL     1     -40.962  -0.187 -32.302  0.00  0.00    +0.000 C 
ATOM     18  O   UNL     1     -41.991  -0.343 -33.270  0.00  0.00    +0.000 OA
ENDBRANCH  11  18
ENDBRANCH   1  14
BRANCH   5  19
ATOM     19  C   UNL     1     -46.760  -5.112 -26.703  0.00  0.00    +0.000 A 
ATOM     20  C   UNL     1     -47.158  -4.378 -25.582  0.00  0.00    +0.000 A 
ATOM     21  C   UNL     1     -47.106  -4.940 -24.299  0.00  0.00    +0.000 A 
ATOM     22  C   UNL     1     -46.647  -6.257 -24.124  0.00  0.00    +0.000 A 
ATOM     23  C   UNL     1     -46.241  -7.008 -25.257  0.00  0.00    +0.000 A 
ATOM     24  C   UNL     1     -46.305  -6.421 -26.530  0.00  0.00    +0.000 A 
BRANCH  23  26
ATOM     25  C   UNL     1     -44.434  -8.640 -24.787  0.00  0.00    +0.000 C 
ATOM     26  O   UNL     1     -45.780  -8.322 -25.115  0.00  0.00    +0.000 OA
ENDBRANCH  23  26
BRANCH  22  28
ATOM     27  C   UNL     1     -47.616  -7.592 -22.236  0.00  0.00    +0.000 C 
ATOM     28  O   UNL     1     -46.619  -6.762 -22.813  0.00  0.00    +0.000 OA
ENDBRANCH  22  28
BRANCH  21  30
ATOM     29  C   UNL     1     -47.415  -2.788 -23.111  0.00  0.00    +0.000 C 
ATOM     30  O   UNL     1     -47.505  -4.204 -23.176  0.00  0.00    +0.000 OA
ENDBRANCH  21  30
ENDBRANCH   5  19
TORSDOF 6
ENDMDL
MODEL 2
REMARK VINA RESULT:      -6.7      2.836      3.691
REMARK  Name = ZINC000020135762 ZINC20135762 PubChem-92655563
REMARK  6 active torsions:
REMARK  status: ('A' for Active; 'I' for Inactive)
REMARK    1  A    between atoms: C_2  and  O_22
REMARK    2  A    between atoms: C_5  and  C_8
REMARK    3  A    between atoms: C_12  and  C_13
REMARK    4  A    between atoms: C_15  and  O_27
REMARK    5  A    between atoms: C_16  and  O_26
REMARK    6  A    between atoms: C_17  and  O_25
REMARK                            x       y       z     vdW  Elec       q    Type
REMARK                         _______ _______ _______ _____ _____    ______ ____
ROOT
ATOM      1  C   UNL     1     -46.716  -3.625 -32.298  0.00  0.00    +0.000 C 
ATOM      2  C   UNL     1     -47.311  -3.860 -33.694  0.00  0.00    +0.000 C 
ATOM      3  C   UNL     1     -46.957  -5.219 -34.205  0.00  0.00    +0.000 C 
ATOM      4  C   UNL     1     -46.787  -6.033 -31.876  0.00  0.00    +0.000 C 
ATOM      5  C   UNL     1     -46.826  -7.062 -29.537  0.00  0.00    +0.000 C 
ATOM      6  O   UNL     1     -46.858  -5.426 -35.442  0.00  0.00    +0.000 OA
ATOM      7  O   UNL     1     -46.812  -5.940 -28.959  0.00  0.00    +0.000 OA
ATOM      8  N   UNL     1     -46.761  -6.288 -33.282  0.00  0.00    +0.000 NA
ATOM      9  N   UNL     1     -46.803  -4.808 -31.433  0.00  0.00    +0.000 NA
ATOM     10  N   UNL     1     -46.811  -7.142 -30.970  0.00  0.00    +0.000 NA
ENDROOT
BRANCH   1  14
ATOM     11  C   UNL     1     -42.679  -2.141 -32.565  0.00  0.00    +0.000 A 
ATOM     12  C   UNL     1     -42.955  -3.274 -31.794  0.00  0.00    +0.000 A 
ATOM     13  C   UNL     1     -44.261  -3.763 -31.699  0.00  0.00    +0.000 A 
ATOM     14  C   UNL     1     -45.308  -3.118 -32.375  0.00  0.00    +0.000 A 
ATOM     15  C   UNL     1     -45.034  -1.986 -33.149  0.00  0.00    +0.000 A 
ATOM     16  C   UNL     1     -43.727  -1.497 -33.244  0.00  0.00    +0.000 A 
BRANCH  11  18
ATOM     17  C   UNL     1     -41.019  -0.311 -32.447  0.00  0.00    +0.000 C 
ATOM     18  O   UNL     1     -41.364  -1.676 -32.638  0.00  0.00    +0.000 OA
ENDBRANCH  11  18
ENDBRANCH   1  14
BRANCH   5  19
ATOM     19  C   UNL     1     -46.855  -8.298 -28.736  0.00  0.00    +0.000 A 
ATOM     20  C   UNL     1     -47.199  -8.258 -27.382  0.00  0.00    +0.000 A 
ATOM     21  C   UNL     1     -47.229  -9.429 -26.612  0.00  0.00    +0.000 A 
ATOM     22  C   UNL     1     -46.912 -10.666 -27.199  0.00  0.00    +0.000 A 
ATOM     23  C   UNL     1     -46.562 -10.715 -28.573  0.00  0.00    +0.000 A 
ATOM     24  C   UNL     1     -46.540  -9.526 -29.320  0.00  0.00    +0.000 A 
BRANCH  23  26
ATOM     25  C   UNL     1     -45.995 -12.058 -30.579  0.00  0.00    +0.000 C 
ATOM     26  O   UNL     1     -46.241 -11.932 -29.185  0.00  0.00    +0.000 OA
ENDBRANCH  23  26
BRANCH  22  28
ATOM     27  C   UNL     1     -45.851 -12.362 -25.687  0.00  0.00    +0.000 C 
ATOM     28  O   UNL     1     -46.961 -11.802 -26.374  0.00  0.00    +0.000 OA
ENDBRANCH  22  28
BRANCH  21  30
ATOM     29  C   UNL     1     -46.853  -8.623 -24.300  0.00  0.00    +0.000 C 
ATOM     30  O   UNL     1     -47.574  -9.388 -25.256  0.00  0.00    +0.000 OA
ENDBRANCH  21  30
ENDBRANCH   5  19
TORSDOF 6
ENDMDL
MODEL 3
REMARK VINA RESULT:      -6.7      2.820      4.233
REMARK  Name = ZINC000020135762 ZINC20135762 PubChem-92655563
REMARK  6 active torsions:
REMARK  status: ('A' for Active; 'I' for Inactive)
REMARK    1  A    between atoms: C_2  and  O_22
REMARK    2  A    between atoms: C_5  and  C_8
REMARK    3  A    between atoms: C_12  and  C_13
REMARK    4  A    between atoms: C_15  and  O_27
REMARK    5  A    between atoms: C_16  and  O_26
REMARK    6  A    between atoms: C_17  and  O_25
REMARK                            x       y       z     vdW  Elec       q    Type
REMARK                         _______ _______ _______ _____ _____    ______ ____
ROOT
ATOM      1  C   UNL     1     -46.793  -3.677 -32.287  0.00  0.00    +0.000 C 
ATOM      2  C   UNL     1     -47.356  -3.931 -33.693  0.00  0.00    +0.000 C 
ATOM      3  C   UNL     1     -46.964  -5.284 -34.190  0.00  0.00    +0.000 C 
ATOM      4  C   UNL     1     -46.823  -6.083 -31.854  0.00  0.00    +0.000 C 
ATOM      5  C   UNL     1     -46.885  -7.102 -29.511  0.00  0.00    +0.000 C 
ATOM      6  O   UNL     1     -46.837  -5.494 -35.423  0.00  0.00    +0.000 OA
ATOM      7  O   UNL     1     -46.906  -5.978 -28.939  0.00  0.00    +0.000 OA
ATOM      8  N   UNL     1     -46.763  -6.345 -33.258  0.00  0.00    +0.000 NA
ATOM      9  N   UNL     1     -46.873  -4.857 -31.417  0.00  0.00    +0.000 NA
ATOM     10  N   UNL     1     -46.841  -7.189 -30.943  0.00  0.00    +0.000 NA
ENDROOT
BRANCH   1  14
ATOM     11  C   UNL     1     -42.783  -2.111 -32.484  0.00  0.00    +0.000 A 
ATOM     12  C   UNL     1     -43.060  -3.218 -31.676  0.00  0.00    +0.000 A 
ATOM     13  C   UNL     1     -44.358  -3.733 -31.603  0.00  0.00    +0.000 A 
ATOM     14  C   UNL     1     -45.394  -3.141 -32.339  0.00  0.00    +0.000 A 
ATOM     15  C   UNL     1     -45.119  -2.035 -33.150  0.00  0.00    +0.000 A 
ATOM     16  C   UNL     1     -43.821  -1.521 -33.223  0.00  0.00    +0.000 A 
BRANCH  11  18
ATOM     17  C   UNL     1     -41.133  -0.305 -32.119  0.00  0.00    +0.000 C 
ATOM     18  O   UNL     1     -41.477  -1.620 -32.534  0.00  0.00    +0.000 OA
ENDBRANCH  11  18
ENDBRANCH   1  14
BRANCH   5  19
ATOM     19  C   UNL     1     -46.905  -8.335 -28.704  0.00  0.00    +0.000 A 
ATOM     20  C   UNL     1     -46.732  -9.582 -29.311  0.00  0.00    +0.000 A 
ATOM     21  C   UNL     1     -46.749 -10.760 -28.550  0.00  0.00    +0.000 A 
ATOM     22  C   UNL     1     -46.941 -10.698 -27.160  0.00  0.00    +0.000 A 
ATOM     23  C   UNL     1     -47.118  -9.435 -26.537  0.00  0.00    +0.000 A 
ATOM     24  C   UNL     1     -47.096  -8.272 -27.323  0.00  0.00    +0.000 A 
BRANCH  23  26
ATOM     25  C   UNL     1     -46.239  -9.268 -24.224  0.00  0.00    +0.000 C 
ATOM     26  O   UNL     1     -47.312  -9.342 -25.154  0.00  0.00    +0.000 OA
ENDBRANCH  23  26
BRANCH  22  28
ATOM     27  C   UNL     1     -45.796 -12.565 -25.940  0.00  0.00    +0.000 C 
ATOM     28  O   UNL     1     -46.948 -11.913 -26.455  0.00  0.00    +0.000 OA
ENDBRANCH  22  28
BRANCH  21  30
ATOM     29  C   UNL     1     -45.454 -12.323 -29.971  0.00  0.00    +0.000 C 
ATOM     30  O   UNL     1     -46.576 -12.009 -29.158  0.00  0.00    +0.000 OA
ENDBRANCH  21  30
ENDBRANCH   5  19
TORSDOF 6
ENDMDL
