MODEL 1
REMARK VINA RESULT:      -7.1      0.000      0.000
REMARK  Name = ZINC000072242201 ZINC72242201 PubChem-95740415
REMARK  2 active torsions:
REMARK  status: ('A' for Active; 'I' for Inactive)
REMARK    1  A    between atoms: C_7  and  C_8
REMARK    2  A    between atoms: C_11  and  C_12
REMARK                            x       y       z     vdW  Elec       q    Type
REMARK                         _______ _______ _______ _____ _____    ______ ____
ROOT
ATOM      1  C   UNL     1     -46.359  -5.066 -31.340  0.00  0.00    +0.000 C 
ATOM      2  C   UNL     1     -47.109  -6.165 -32.103  0.00  0.00    +0.000 C 
ATOM      3  C   UNL     1     -46.065  -6.745 -32.972  0.00  0.00    +0.000 C 
ATOM      4  C   UNL     1     -44.877  -5.137 -31.754  0.00  0.00    +0.000 C 
ATOM      5  C   UNL     1     -43.560  -6.660 -33.343  0.00  0.00    +0.000 C 
ATOM      6  N   UNL     1     -44.803  -6.138 -32.801  0.00  0.00    +0.000 N 
ATOM      7  O   UNL     1     -46.271  -7.693 -33.773  0.00  0.00    +0.000 OA
ENDROOT
BRANCH   1  14
ATOM      8  C   UNL     1     -47.756  -1.590 -24.983  0.00  0.00    +0.000 C 
ATOM      9  C   UNL     1     -47.450  -2.892 -25.628  0.00  0.00    +0.000 A 
ATOM     10  C   UNL     1     -47.350  -4.048 -24.851  0.00  0.00    +0.000 A 
ATOM     11  C   UNL     1     -47.062  -5.263 -25.474  0.00  0.00    +0.000 A 
ATOM     12  C   UNL     1     -46.877  -5.308 -26.856  0.00  0.00    +0.000 A 
ATOM     13  C   UNL     1     -46.984  -4.129 -27.607  0.00  0.00    +0.000 A 
ATOM     14  C   UNL     1     -46.505  -5.250 -29.866  0.00  0.00    +0.000 C 
ATOM     15  N   UNL     1     -47.266  -2.958 -26.974  0.00  0.00    +0.000 NA
ATOM     16  N   UNL     1     -46.805  -4.122 -29.030  0.00  0.00    +0.000 NA
ATOM     17  O   UNL     1     -46.365  -6.403 -29.378  0.00  0.00    +0.000 OA
ENDBRANCH   1  14
BRANCH   4  18
ATOM     18  C   UNL     1     -44.391  -3.806 -32.242  0.00  0.00    +0.000 A 
ATOM     19  C   UNL     1     -45.188  -3.000 -33.070  0.00  0.00    +0.000 A 
ATOM     20  C   UNL     1     -44.713  -1.762 -33.512  0.00  0.00    +0.000 A 
ATOM     21  C   UNL     1     -43.444  -1.323 -33.126  0.00  0.00    +0.000 A 
ATOM     22  C   UNL     1     -42.648  -2.122 -32.301  0.00  0.00    +0.000 A 
ATOM     23  C   UNL     1     -43.121  -3.361 -31.858  0.00  0.00    +0.000 A 
ATOM     24  F   UNL     1     -42.983  -0.122 -33.554  0.00  0.00    +0.000 F 
ENDBRANCH   4  18
TORSDOF 2
ENDMDL
MODEL 2
REMARK VINA RESULT:      -6.9      1.996      2.826
REMARK  Name = ZINC000072242201 ZINC72242201 PubChem-95740415
REMARK  2 active torsions:
REMARK  status: ('A' for Active; 'I' for Inactive)
REMARK    1  A    between atoms: C_7  and  C_8
REMARK    2  A    between atoms: C_11  and  C_12
REMARK                            x       y       z     vdW  Elec       q    Type
REMARK                         _______ _______ _______ _____ _____    ______ ____
ROOT
ATOM      1  C   UNL     1     -46.149  -3.650 -31.889  0.00  0.00    +0.000 C 
ATOM      2  C   UNL     1     -47.209  -4.227 -32.836  0.00  0.00    +0.000 C 
ATOM      3  C   UNL     1     -46.405  -4.938 -33.850  0.00  0.00    +0.000 C 
ATOM      4  C   UNL     1     -44.772  -4.147 -32.369  0.00  0.00    +0.000 C 
ATOM      5  C   UNL     1     -44.017  -5.660 -34.298  0.00  0.00    +0.000 C 
ATOM      6  N   UNL     1     -45.017  -4.863 -33.607  0.00  0.00    +0.000 N 
ATOM      7  O   UNL     1     -46.900  -5.560 -34.825  0.00  0.00    +0.000 OA
ENDROOT
BRANCH   1  14
ATOM      8  C   UNL     1     -43.728  -7.964 -26.414  0.00  0.00    +0.000 C 
ATOM      9  C   UNL     1     -44.753  -6.975 -26.835  0.00  0.00    +0.000 A 
ATOM     10  C   UNL     1     -45.752  -6.583 -25.942  0.00  0.00    +0.000 A 
ATOM     11  C   UNL     1     -46.706  -5.653 -26.355  0.00  0.00    +0.000 A 
ATOM     12  C   UNL     1     -46.652  -5.129 -27.647  0.00  0.00    +0.000 A 
ATOM     13  C   UNL     1     -45.637  -5.545 -28.520  0.00  0.00    +0.000 A 
ATOM     14  C   UNL     1     -46.405  -4.080 -30.483  0.00  0.00    +0.000 C 
ATOM     15  N   UNL     1     -44.718  -6.453 -28.091  0.00  0.00    +0.000 NA
ATOM     16  N   UNL     1     -45.535  -5.036 -29.857  0.00  0.00    +0.000 NA
ATOM     17  O   UNL     1     -47.384  -3.588 -29.863  0.00  0.00    +0.000 OA
ENDBRANCH   1  14
BRANCH   4  18
ATOM     18  C   UNL     1     -43.833  -2.999 -32.585  0.00  0.00    +0.000 A 
ATOM     19  C   UNL     1     -42.463  -3.118 -32.306  0.00  0.00    +0.000 A 
ATOM     20  C   UNL     1     -41.607  -2.033 -32.516  0.00  0.00    +0.000 A 
ATOM     21  C   UNL     1     -42.115  -0.828 -33.008  0.00  0.00    +0.000 A 
ATOM     22  C   UNL     1     -43.480  -0.706 -33.287  0.00  0.00    +0.000 A 
ATOM     23  C   UNL     1     -44.336  -1.790 -33.077  0.00  0.00    +0.000 A 
ATOM     24  F   UNL     1     -41.286   0.224 -33.212  0.00  0.00    +0.000 F 
ENDBRANCH   4  18
TORSDOF 2
ENDMDL
MODEL 3
REMARK VINA RESULT:      -6.6      2.783      3.704
REMARK  Name = ZINC000072242201 ZINC72242201 PubChem-95740415
REMARK  2 active torsions:
REMARK  status: ('A' for Active; 'I' for Inactive)
REMARK    1  A    between atoms: C_7  and  C_8
REMARK    2  A    between atoms: C_11  and  C_12
REMARK                            x       y       z     vdW  Elec       q    Type
REMARK                         _______ _______ _______ _____ _____    ______ ____
ROOT
ATOM      1  C   UNL     1     -46.754  -5.766 -28.945  0.00  0.00    +0.000 C 
ATOM      2  C   UNL     1     -46.419  -7.033 -28.148  0.00  0.00    +0.000 C 
ATOM      3  C   UNL     1     -45.127  -7.461 -28.720  0.00  0.00    +0.000 C 
ATOM      4  C   UNL     1     -45.569  -5.479 -29.887  0.00  0.00    +0.000 C 
ATOM      5  C   UNL     1     -43.319  -6.642 -30.297  0.00  0.00    +0.000 C 
ATOM      6  N   UNL     1     -44.659  -6.598 -29.735  0.00  0.00    +0.000 N 
ATOM      7  O   UNL     1     -44.497  -8.479 -28.337  0.00  0.00    +0.000 OA
ENDROOT
BRANCH   1  14
ATOM      8  C   UNL     1     -47.143  -3.716 -21.867  0.00  0.00    +0.000 C 
ATOM      9  C   UNL     1     -47.241  -3.271 -23.281  0.00  0.00    +0.000 A 
ATOM     10  C   UNL     1     -47.512  -1.933 -23.573  0.00  0.00    +0.000 A 
ATOM     11  C   UNL     1     -47.600  -1.532 -24.907  0.00  0.00    +0.000 A 
ATOM     12  C   UNL     1     -47.416  -2.467 -25.926  0.00  0.00    +0.000 A 
ATOM     13  C   UNL     1     -47.145  -3.803 -25.599  0.00  0.00    +0.000 A 
ATOM     14  C   UNL     1     -46.992  -4.611 -28.030  0.00  0.00    +0.000 C 
ATOM     15  N   UNL     1     -47.065  -4.166 -24.290  0.00  0.00    +0.000 NA
ATOM     16  N   UNL     1     -46.947  -4.803 -26.608  0.00  0.00    +0.000 NA
ATOM     17  O   UNL     1     -47.228  -3.478 -28.527  0.00  0.00    +0.000 OA
ENDBRANCH   1  14
BRANCH   4  18
ATOM     18  C   UNL     1     -46.032  -5.347 -31.306  0.00  0.00    +0.000 A 
ATOM     19  C   UNL     1     -46.208  -6.475 -32.122  0.00  0.00    +0.000 A 
ATOM     20  C   UNL     1     -46.642  -6.326 -33.443  0.00  0.00    +0.000 A 
ATOM     21  C   UNL     1     -46.903  -5.051 -33.952  0.00  0.00    +0.000 A 
ATOM     22  C   UNL     1     -46.729  -3.925 -33.142  0.00  0.00    +0.000 A 
ATOM     23  C   UNL     1     -46.295  -4.073 -31.822  0.00  0.00    +0.000 A 
ATOM     24  F   UNL     1     -47.323  -4.906 -35.232  0.00  0.00    +0.000 F 
ENDBRANCH   4  18
TORSDOF 2
ENDMDL
