MODEL 1
REMARK VINA RESULT:      -6.7      0.000      0.000
REMARK  Name = ZINC000004733041 ZINC04733041 PubChem-92230333
REMARK  6 active torsions:
REMARK  status: ('A' for Active; 'I' for Inactive)
REMARK    1  A    between atoms: C_2  and  O_26
REMARK    2  A    between atoms: C_5  and  N_29
REMARK    3  A    between atoms: C_8  and  C_20
REMARK    4  A    between atoms: C_9  and  C_13
REMARK    5  A    between atoms: C_14  and  C_15
REMARK    6  A    between atoms: C_14  and  N_30
REMARK                            x       y       z     vdW  Elec       q    Type
REMARK                         _______ _______ _______ _____ _____    ______ ____
ROOT
ATOM      1  C   UNL     1     -44.897  -4.479 -32.169  0.00  0.00    +0.000 C 
ATOM      2  C   UNL     1     -46.119  -4.091 -31.305  0.00  0.00    +0.000 C 
ATOM      3  C   UNL     1     -47.479  -4.444 -31.913  0.00  0.00    +0.000 C 
ATOM      4  C   UNL     1     -47.494  -4.104 -33.390  0.00  0.00    +0.000 C 
ATOM      5  C   UNL     1     -46.491  -4.978 -34.055  0.00  0.00    +0.000 C 
ATOM      6  O   UNL     1     -46.804  -5.568 -35.125  0.00  0.00    +0.000 OA
ATOM      7  N   UNL     1     -45.220  -5.209 -33.410  0.00  0.00    +0.000 N 
ENDROOT
BRANCH   1   8
ATOM      8  C   UNL     1     -44.036  -3.287 -32.454  0.00  0.00    +0.000 A 
ATOM      9  C   UNL     1     -44.571  -2.130 -33.038  0.00  0.00    +0.000 A 
ATOM     10  C   UNL     1     -43.749  -1.030 -33.295  0.00  0.00    +0.000 A 
ATOM     11  C   UNL     1     -42.390  -1.082 -32.969  0.00  0.00    +0.000 A 
ATOM     12  C   UNL     1     -41.854  -2.235 -32.388  0.00  0.00    +0.000 A 
ATOM     13  C   UNL     1     -42.676  -3.337 -32.131  0.00  0.00    +0.000 A 
ATOM     14  F   UNL     1     -41.593  -0.013 -33.214  0.00  0.00    +0.000 F 
ENDBRANCH   1   8
BRANCH   7  18
ATOM     15  C   UNL     1     -42.326  -7.971 -34.886  0.00  0.00    +0.000 A 
ATOM     16  C   UNL     1     -43.310  -8.389 -33.978  0.00  0.00    +0.000 A 
ATOM     17  C   UNL     1     -44.259  -7.480 -33.503  0.00  0.00    +0.000 A 
ATOM     18  C   UNL     1     -44.245  -6.141 -33.926  0.00  0.00    +0.000 A 
ATOM     19  C   UNL     1     -43.251  -5.731 -34.830  0.00  0.00    +0.000 A 
ATOM     20  C   UNL     1     -42.303  -6.638 -35.308  0.00  0.00    +0.000 A 
BRANCH  15  22
ATOM     21  C   UNL     1     -40.835  -9.925 -34.604  0.00  0.00    +0.000 C 
ATOM     22  O   UNL     1     -41.359  -8.853 -35.378  0.00  0.00    +0.000 OA
ENDBRANCH  15  22
ENDBRANCH   7  18
BRANCH   2  23
ATOM     23  C   UNL     1     -45.989  -4.689 -29.945  0.00  0.00    +0.000 C 
ATOM     24  O   UNL     1     -44.980  -5.391 -29.671  0.00  0.00    +0.000 OA
ATOM     25  N   UNL     1     -47.018  -4.484 -28.975  0.00  0.00    +0.000 NA
BRANCH  25  26
ATOM     26  C   UNL     1     -46.969  -5.090 -27.655  0.00  0.00    +0.000 C 
BRANCH  26  27
ATOM     27  C   UNL     1     -47.148  -4.037 -26.619  0.00  0.00    +0.000 A 
ATOM     28  C   UNL     1     -47.130  -4.373 -25.262  0.00  0.00    +0.000 A 
ATOM     29  C   UNL     1     -47.274  -3.374 -24.299  0.00  0.00    +0.000 A 
ATOM     30  C   UNL     1     -47.428  -2.046 -24.709  0.00  0.00    +0.000 A 
ATOM     31  C   UNL     1     -47.296  -2.697 -26.990  0.00  0.00    +0.000 A 
ATOM     32  N   UNL     1     -47.435  -1.738 -26.035  0.00  0.00    +0.000 NA
ENDBRANCH  26  27
ENDBRANCH  25  26
ENDBRANCH   2  23
TORSDOF 6
ENDMDL
MODEL 2
REMARK VINA RESULT:      -6.5      3.924      8.955
REMARK  Name = ZINC000004733041 ZINC04733041 PubChem-92230333
REMARK  6 active torsions:
REMARK  status: ('A' for Active; 'I' for Inactive)
REMARK    1  A    between atoms: C_2  and  O_26
REMARK    2  A    between atoms: C_5  and  N_29
REMARK    3  A    between atoms: C_8  and  C_20
REMARK    4  A    between atoms: C_9  and  C_13
REMARK    5  A    between atoms: C_14  and  C_15
REMARK    6  A    between atoms: C_14  and  N_30
REMARK                            x       y       z     vdW  Elec       q    Type
REMARK                         _______ _______ _______ _____ _____    ______ ____
ROOT
ATOM      1  C   UNL     1     -45.908  -6.944 -26.728  0.00  0.00    +0.000 C 
ATOM      2  C   UNL     1     -46.321  -8.139 -27.619  0.00  0.00    +0.000 C 
ATOM      3  C   UNL     1     -47.354  -9.081 -26.998  0.00  0.00    +0.000 C 
ATOM      4  C   UNL     1     -47.018  -9.339 -25.542  0.00  0.00    +0.000 C 
ATOM      5  C   UNL     1     -47.139  -8.042 -24.824  0.00  0.00    +0.000 C 
ATOM      6  O   UNL     1     -47.754  -8.005 -23.724  0.00  0.00    +0.000 OA
ATOM      7  N   UNL     1     -46.636  -6.842 -25.449  0.00  0.00    +0.000 N 
ENDROOT
BRANCH   1   8
ATOM      8  C   UNL     1     -44.427  -6.920 -26.507  0.00  0.00    +0.000 A 
ATOM      9  C   UNL     1     -43.549  -6.530 -27.529  0.00  0.00    +0.000 A 
ATOM     10  C   UNL     1     -42.171  -6.514 -27.301  0.00  0.00    +0.000 A 
ATOM     11  C   UNL     1     -41.664  -6.887 -26.051  0.00  0.00    +0.000 A 
ATOM     12  C   UNL     1     -42.537  -7.278 -25.032  0.00  0.00    +0.000 A 
ATOM     13  C   UNL     1     -43.918  -7.294 -25.260  0.00  0.00    +0.000 A 
ATOM     14  F   UNL     1     -40.328  -6.867 -25.829  0.00  0.00    +0.000 F 
ENDBRANCH   1   8
BRANCH   7  18
ATOM     15  C   UNL     1     -47.237  -2.987 -23.726  0.00  0.00    +0.000 A 
ATOM     16  C   UNL     1     -46.852  -4.073 -22.925  0.00  0.00    +0.000 A 
ATOM     17  C   UNL     1     -46.650  -5.332 -23.497  0.00  0.00    +0.000 A 
ATOM     18  C   UNL     1     -46.828  -5.529 -24.876  0.00  0.00    +0.000 A 
ATOM     19  C   UNL     1     -47.220  -4.438 -25.668  0.00  0.00    +0.000 A 
ATOM     20  C   UNL     1     -47.419  -3.178 -25.099  0.00  0.00    +0.000 A 
BRANCH  15  22
ATOM     21  C   UNL     1     -46.874  -1.299 -21.954  0.00  0.00    +0.000 C 
ATOM     22  O   UNL     1     -47.451  -1.716 -23.185  0.00  0.00    +0.000 OA
ENDBRANCH  15  22
ENDBRANCH   7  18
BRANCH   2  23
ATOM     23  C   UNL     1     -46.798  -7.644 -28.941  0.00  0.00    +0.000 C 
ATOM     24  O   UNL     1     -47.123  -8.474 -29.833  0.00  0.00    +0.000 OA
ATOM     25  N   UNL     1     -46.860  -6.240 -29.198  0.00  0.00    +0.000 NA
BRANCH  25  26
ATOM     26  C   UNL     1     -47.264  -5.706 -30.487  0.00  0.00    +0.000 C 
BRANCH  26  27
ATOM     27  C   UNL     1     -46.242  -4.736 -30.965  0.00  0.00    +0.000 A 
ATOM     28  C   UNL     1     -46.626  -3.463 -31.397  0.00  0.00    +0.000 A 
ATOM     29  C   UNL     1     -45.655  -2.554 -31.819  0.00  0.00    +0.000 A 
ATOM     30  C   UNL     1     -44.310  -2.931 -31.799  0.00  0.00    +0.000 A 
ATOM     31  C   UNL     1     -44.885  -5.074 -30.952  0.00  0.00    +0.000 A 
ATOM     32  N   UNL     1     -43.955  -4.173 -31.369  0.00  0.00    +0.000 NA
ENDBRANCH  26  27
ENDBRANCH  25  26
ENDBRANCH   2  23
TORSDOF 6
ENDMDL
MODEL 3
REMARK VINA RESULT:      -6.5      2.071      2.893
REMARK  Name = ZINC000004733041 ZINC04733041 PubChem-92230333
REMARK  6 active torsions:
REMARK  status: ('A' for Active; 'I' for Inactive)
REMARK    1  A    between atoms: C_2  and  O_26
REMARK    2  A    between atoms: C_5  and  N_29
REMARK    3  A    between atoms: C_8  and  C_20
REMARK    4  A    between atoms: C_9  and  C_13
REMARK    5  A    between atoms: C_14  and  C_15
REMARK    6  A    between atoms: C_14  and  N_30
REMARK                            x       y       z     vdW  Elec       q    Type
REMARK                         _______ _______ _______ _____ _____    ______ ____
ROOT
ATOM      1  C   UNL     1     -45.009  -4.299 -32.082  0.00  0.00    +0.000 C 
ATOM      2  C   UNL     1     -46.327  -3.815 -31.434  0.00  0.00    +0.000 C 
ATOM      3  C   UNL     1     -47.603  -4.268 -32.148  0.00  0.00    +0.000 C 
ATOM      4  C   UNL     1     -47.437  -4.135 -33.649  0.00  0.00    +0.000 C 
ATOM      5  C   UNL     1     -46.362  -5.077 -34.060  0.00  0.00    +0.000 C 
ATOM      6  O   UNL     1     -46.542  -5.813 -35.068  0.00  0.00    +0.000 OA
ATOM      7  N   UNL     1     -45.179  -5.197 -33.240  0.00  0.00    +0.000 N 
ENDROOT
BRANCH   1   8
ATOM      8  C   UNL     1     -44.118  -3.145 -32.423  0.00  0.00    +0.000 A 
ATOM      9  C   UNL     1     -44.633  -1.980 -33.007  0.00  0.00    +0.000 A 
ATOM     10  C   UNL     1     -43.783  -0.914 -33.315  0.00  0.00    +0.000 A 
ATOM     11  C   UNL     1     -42.414  -1.011 -33.042  0.00  0.00    +0.000 A 
ATOM     12  C   UNL     1     -41.898  -2.173 -32.462  0.00  0.00    +0.000 A 
ATOM     13  C   UNL     1     -42.748  -3.239 -32.152  0.00  0.00    +0.000 A 
ATOM     14  F   UNL     1     -41.590   0.023 -33.337  0.00  0.00    +0.000 F 
ENDBRANCH   1   8
BRANCH   7  18
ATOM     15  C   UNL     1     -42.121  -8.080 -33.963  0.00  0.00    +0.000 A 
ATOM     16  C   UNL     1     -42.988  -8.222 -32.869  0.00  0.00    +0.000 A 
ATOM     17  C   UNL     1     -43.992  -7.277 -32.642  0.00  0.00    +0.000 A 
ATOM     18  C   UNL     1     -44.150  -6.177 -33.501  0.00  0.00    +0.000 A 
ATOM     19  C   UNL     1     -43.272  -6.040 -34.588  0.00  0.00    +0.000 A 
ATOM     20  C   UNL     1     -42.270  -6.985 -34.819  0.00  0.00    +0.000 A 
BRANCH  15  22
ATOM     21  C   UNL     1     -41.299 -10.159 -35.023  0.00  0.00    +0.000 C 
ATOM     22  O   UNL     1     -41.103  -9.005 -34.217  0.00  0.00    +0.000 OA
ENDBRANCH  15  22
ENDBRANCH   7  18
BRANCH   2  23
ATOM     23  C   UNL     1     -46.365  -4.218 -30.000  0.00  0.00    +0.000 C 
ATOM     24  O   UNL     1     -46.881  -3.443 -29.151  0.00  0.00    +0.000 OA
ATOM     25  N   UNL     1     -45.795  -5.464 -29.594  0.00  0.00    +0.000 NA
BRANCH  25  26
ATOM     26  C   UNL     1     -45.755  -5.881 -28.202  0.00  0.00    +0.000 C 
BRANCH  26  27
ATOM     27  C   UNL     1     -44.400  -6.404 -27.880  0.00  0.00    +0.000 A 
ATOM     28  C   UNL     1     -43.330  -6.174 -28.749  0.00  0.00    +0.000 A 
ATOM     29  C   UNL     1     -42.059  -6.649 -28.423  0.00  0.00    +0.000 A 
ATOM     30  C   UNL     1     -41.875  -7.345 -27.225  0.00  0.00    +0.000 A 
ATOM     31  C   UNL     1     -44.176  -7.099 -26.687  0.00  0.00    +0.000 A 
ATOM     32  N   UNL     1     -42.928  -7.553 -26.388  0.00  0.00    +0.000 NA
ENDBRANCH  26  27
ENDBRANCH  25  26
ENDBRANCH   2  23
TORSDOF 6
ENDMDL
