MODEL 1
REMARK VINA RESULT:      -6.3      0.000      0.000
REMARK  Name = ZINC000032674352 ZINC32674352 PubChem-39910230
REMARK  6 active torsions:
REMARK  status: ('A' for Active; 'I' for Inactive)
REMARK    1  A    between atoms: C_2  and  O_24
REMARK    2  A    between atoms: C_5  and  C_8
REMARK    3  A    between atoms: C_8  and  C_9
REMARK    4  A    between atoms: C_8  and  N_30
REMARK    5  A    between atoms: C_9  and  N_29
REMARK    6  A    between atoms: C_10  and  C_11
REMARK                            x       y       z     vdW  Elec       q    Type
REMARK                         _______ _______ _______ _____ _____    ______ ____
ROOT
ATOM      1  C   UNL     1     -46.134  -5.777 -31.097  0.00  0.00    +0.000 C 
ENDROOT
BRANCH   1   5
ATOM      2  C   UNL     1     -44.765  -6.873 -35.046  0.00  0.00    +0.000 A 
ATOM      3  C   UNL     1     -43.985  -7.150 -33.912  0.00  0.00    +0.000 A 
ATOM      4  C   UNL     1     -44.439  -6.790 -32.639  0.00  0.00    +0.000 A 
ATOM      5  C   UNL     1     -45.675  -6.155 -32.485  0.00  0.00    +0.000 A 
ATOM      6  C   UNL     1     -46.455  -5.878 -33.620  0.00  0.00    +0.000 A 
ATOM      7  C   UNL     1     -46.000  -6.235 -34.891  0.00  0.00    +0.000 A 
BRANCH   2   9
ATOM      8  C   UNL     1     -43.122  -6.761 -36.893  0.00  0.00    +0.000 C 
ATOM      9  O   UNL     1     -44.342  -7.225 -36.331  0.00  0.00    +0.000 OA
ENDBRANCH   2   9
ENDBRANCH   1   5
BRANCH   1  15
ATOM     10  C   UNL     1     -45.557  -6.319 -28.831  0.00  0.00    +0.000 C 
ATOM     11  C   UNL     1     -45.545  -7.425 -27.775  0.00  0.00    +0.000 C 
ATOM     12  C   UNL     1     -47.226  -8.555 -28.782  0.00  0.00    +0.000 C 
ATOM     13  C   UNL     1     -47.347  -7.520 -29.902  0.00  0.00    +0.000 C 
ATOM     14  O   UNL     1     -46.850  -7.917 -27.586  0.00  0.00    +0.000 OA
ATOM     15  N   UNL     1     -46.049  -6.861 -30.102  0.00  0.00    +0.000 NA
ENDBRANCH   1  15
BRANCH   1  16
ATOM     16  C   UNL     1     -45.472  -4.495 -30.595  0.00  0.00    +0.000 C 
BRANCH  16  19
ATOM     17  C   UNL     1     -45.147  -2.190 -31.602  0.00  0.00    +0.000 C 
ATOM     18  O   UNL     1     -45.536  -1.630 -30.541  0.00  0.00    +0.000 OA
ATOM     19  N   UNL     1     -45.154  -3.617 -31.713  0.00  0.00    +0.000 NA
BRANCH  17  20
ATOM     20  C   UNL     1     -44.705  -1.347 -32.756  0.00  0.00    +0.000 C 
ATOM     21  C   UNL     1     -44.278  -2.216 -33.948  0.00  0.00    +0.000 C 
ATOM     22  C   UNL     1     -42.882  -2.751 -33.789  0.00  0.00    +0.000 A 
ATOM     23  C   UNL     1     -42.530  -3.950 -34.417  0.00  0.00    +0.000 A 
ATOM     24  C   UNL     1     -41.225  -4.441 -34.312  0.00  0.00    +0.000 A 
ATOM     25  C   UNL     1     -40.267  -3.732 -33.582  0.00  0.00    +0.000 A 
ATOM     26  C   UNL     1     -40.611  -2.532 -32.953  0.00  0.00    +0.000 A 
ATOM     27  C   UNL     1     -41.918  -2.038 -33.052  0.00  0.00    +0.000 A 
ATOM     28  C   UNL     1     -42.321  -0.792 -32.383  0.00  0.00    +0.000 C 
ATOM     29  O   UNL     1     -41.466  -0.041 -31.846  0.00  0.00    +0.000 OA
ATOM     30  O   UNL     1     -43.674  -0.437 -32.359  0.00  0.00    +0.000 OA
ENDBRANCH  17  20
ENDBRANCH  16  19
ENDBRANCH   1  16
TORSDOF 6
ENDMDL
MODEL 2
REMARK VINA RESULT:      -6.3     14.457     17.251
REMARK  Name = ZINC000032674352 ZINC32674352 PubChem-39910230
REMARK  6 active torsions:
REMARK  status: ('A' for Active; 'I' for Inactive)
REMARK    1  A    between atoms: C_2  and  O_24
REMARK    2  A    between atoms: C_5  and  C_8
REMARK    3  A    between atoms: C_8  and  C_9
REMARK    4  A    between atoms: C_8  and  N_30
REMARK    5  A    between atoms: C_9  and  N_29
REMARK    6  A    between atoms: C_10  and  C_11
REMARK                            x       y       z     vdW  Elec       q    Type
REMARK                         _______ _______ _______ _____ _____    ______ ____
ROOT
ATOM      1  C   UNL     1     -45.927 -15.648 -20.342  0.00  0.00    +0.000 C 
ENDROOT
BRANCH   1   5
ATOM      2  C   UNL     1     -44.179 -19.477 -19.366  0.00  0.00    +0.000 A 
ATOM      3  C   UNL     1     -43.367 -18.359 -19.620  0.00  0.00    +0.000 A 
ATOM      4  C   UNL     1     -43.945 -17.125 -19.935  0.00  0.00    +0.000 A 
ATOM      5  C   UNL     1     -45.336 -16.993 -19.996  0.00  0.00    +0.000 A 
ATOM      6  C   UNL     1     -46.147 -18.112 -19.743  0.00  0.00    +0.000 A 
ATOM      7  C   UNL     1     -45.569 -19.344 -19.431  0.00  0.00    +0.000 A 
BRANCH   2   9
ATOM      8  C   UNL     1     -42.401 -20.865 -18.348  0.00  0.00    +0.000 C 
ATOM      9  O   UNL     1     -43.632 -20.722 -19.044  0.00  0.00    +0.000 OA
ENDBRANCH   2   9
ENDBRANCH   1   5
BRANCH   1  15
ATOM     10  C   UNL     1     -46.649 -13.506 -19.534  0.00  0.00    +0.000 C 
ATOM     11  C   UNL     1     -46.441 -12.444 -18.453  0.00  0.00    +0.000 C 
ATOM     12  C   UNL     1     -45.592 -13.943 -16.988  0.00  0.00    +0.000 C 
ATOM     13  C   UNL     1     -45.746 -15.102 -17.974  0.00  0.00    +0.000 C 
ATOM     14  O   UNL     1     -46.632 -13.015 -17.181  0.00  0.00    +0.000 OA
ATOM     15  N   UNL     1     -45.677 -14.588 -19.349  0.00  0.00    +0.000 NA
ENDBRANCH   1  15
BRANCH   1  16
ATOM     16  C   UNL     1     -45.559 -15.197 -21.755  0.00  0.00    +0.000 C 
BRANCH  16  19
ATOM     17  C   UNL     1     -45.646 -16.096 -24.125  0.00  0.00    +0.000 C 
ATOM     18  O   UNL     1     -45.275 -14.988 -24.599  0.00  0.00    +0.000 OA
ATOM     19  N   UNL     1     -45.868 -16.244 -22.718  0.00  0.00    +0.000 NA
BRANCH  17  20
ATOM     20  C   UNL     1     -45.882 -17.248 -25.050  0.00  0.00    +0.000 C 
ATOM     21  C   UNL     1     -45.775 -18.588 -24.309  0.00  0.00    +0.000 C 
ATOM     22  C   UNL     1     -44.347 -19.018 -24.117  0.00  0.00    +0.000 A 
ATOM     23  C   UNL     1     -44.016 -19.841 -23.036  0.00  0.00    +0.000 A 
ATOM     24  C   UNL     1     -42.701 -20.283 -22.866  0.00  0.00    +0.000 A 
ATOM     25  C   UNL     1     -41.712 -19.906 -23.780  0.00  0.00    +0.000 A 
ATOM     26  C   UNL     1     -42.036 -19.085 -24.864  0.00  0.00    +0.000 A 
ATOM     27  C   UNL     1     -43.352 -18.637 -25.036  0.00  0.00    +0.000 A 
ATOM     28  C   UNL     1     -43.722 -17.752 -26.150  0.00  0.00    +0.000 C 
ATOM     29  O   UNL     1     -42.910 -17.510 -27.082  0.00  0.00    +0.000 OA
ATOM     30  O   UNL     1     -45.001 -17.187 -26.177  0.00  0.00    +0.000 OA
ENDBRANCH  17  20
ENDBRANCH  16  19
ENDBRANCH   1  16
TORSDOF 6
ENDMDL
MODEL 3
REMARK VINA RESULT:      -6.2      9.941     15.594
REMARK  Name = ZINC000032674352 ZINC32674352 PubChem-39910230
REMARK  6 active torsions:
REMARK  status: ('A' for Active; 'I' for Inactive)
REMARK    1  A    between atoms: C_2  and  O_24
REMARK    2  A    between atoms: C_5  and  C_8
REMARK    3  A    between atoms: C_8  and  C_9
REMARK    4  A    between atoms: C_8  and  N_30
REMARK    5  A    between atoms: C_9  and  N_29
REMARK    6  A    between atoms: C_10  and  C_11
REMARK                            x       y       z     vdW  Elec       q    Type
REMARK                         _______ _______ _______ _____ _____    ______ ____
ROOT
ATOM      1  C   UNL     1     -45.001 -13.556 -24.775  0.00  0.00    +0.000 C 
ENDROOT
BRANCH   1   5
ATOM      2  C   UNL     1     -44.795 -17.853 -24.370  0.00  0.00    +0.000 A 
ATOM      3  C   UNL     1     -46.020 -17.211 -24.609  0.00  0.00    +0.000 A 
ATOM      4  C   UNL     1     -46.074 -15.819 -24.738  0.00  0.00    +0.000 A 
ATOM      5  C   UNL     1     -44.907 -15.056 -24.634  0.00  0.00    +0.000 A 
ATOM      6  C   UNL     1     -43.682 -15.698 -24.394  0.00  0.00    +0.000 A 
ATOM      7  C   UNL     1     -43.629 -17.088 -24.263  0.00  0.00    +0.000 A 
BRANCH   2   9
ATOM      8  C   UNL     1     -45.046 -20.135 -25.294  0.00  0.00    +0.000 C 
ATOM      9  O   UNL     1     -44.707 -19.242 -24.242  0.00  0.00    +0.000 OA
ENDBRANCH   2   9
ENDBRANCH   1   5
BRANCH   1  15
ATOM     10  C   UNL     1     -46.212 -11.837 -25.932  0.00  0.00    +0.000 C 
ATOM     11  C   UNL     1     -46.622 -11.306 -27.308  0.00  0.00    +0.000 C 
ATOM     12  C   UNL     1     -44.866 -12.296 -28.333  0.00  0.00    +0.000 C 
ATOM     13  C   UNL     1     -44.343 -12.888 -27.024  0.00  0.00    +0.000 C 
ATOM     14  O   UNL     1     -45.475 -11.052 -28.081  0.00  0.00    +0.000 OA
ATOM     15  N   UNL     1     -45.462 -13.086 -26.094  0.00  0.00    +0.000 NA
ENDBRANCH   1  15
BRANCH   1  16
ATOM     16  C   UNL     1     -45.793 -12.914 -23.638  0.00  0.00    +0.000 C 
BRANCH  16  19
ATOM     17  C   UNL     1     -45.879 -13.681 -21.221  0.00  0.00    +0.000 C 
ATOM     18  O   UNL     1     -47.135 -13.783 -21.258  0.00  0.00    +0.000 OA
ATOM     19  N   UNL     1     -45.157 -13.191 -22.357  0.00  0.00    +0.000 NA
BRANCH  17  20
ATOM     20  C   UNL     1     -45.150 -14.050 -19.968  0.00  0.00    +0.000 C 
ATOM     21  C   UNL     1     -44.294 -15.308 -20.172  0.00  0.00    +0.000 C 
ATOM     22  C   UNL     1     -45.108 -16.569 -20.084  0.00  0.00    +0.000 A 
ATOM     23  C   UNL     1     -44.683 -17.711 -20.771  0.00  0.00    +0.000 A 
ATOM     24  C   UNL     1     -45.408 -18.902 -20.667  0.00  0.00    +0.000 A 
ATOM     25  C   UNL     1     -46.556 -18.957 -19.872  0.00  0.00    +0.000 A 
ATOM     26  C   UNL     1     -46.986 -17.820 -19.181  0.00  0.00    +0.000 A 
ATOM     27  C   UNL     1     -46.266 -16.623 -19.286  0.00  0.00    +0.000 A 
ATOM     28  C   UNL     1     -46.703 -15.402 -18.593  0.00  0.00    +0.000 C 
ATOM     29  O   UNL     1     -47.635 -15.436 -17.748  0.00  0.00    +0.000 OA
ATOM     30  O   UNL     1     -46.059 -14.191 -18.871  0.00  0.00    +0.000 OA
ENDBRANCH  17  20
ENDBRANCH  16  19
ENDBRANCH   1  16
TORSDOF 6
ENDMDL
