MODEL 1
REMARK VINA RESULT:      -7.3      0.000      0.000
REMARK  Name = ZINC000096181381 ZINC96181381 PubChem-97457251
REMARK  4 active torsions:
REMARK  status: ('A' for Active; 'I' for Inactive)
REMARK    1  A    between atoms: C_5  and  C_8
REMARK    2  A    between atoms: C_9  and  C_13
REMARK    3  A    between atoms: C_14  and  C_15
REMARK    4  A    between atoms: C_14  and  N_24
REMARK                            x       y       z     vdW  Elec       q    Type
REMARK                         _______ _______ _______ _____ _____    ______ ____
ROOT
ATOM      1  C   UNL     1     -46.951  -5.808 -26.673  0.00  0.00    +0.000 C 
ATOM      2  C   UNL     1     -45.833  -5.509 -27.690  0.00  0.00    +0.000 C 
ATOM      3  C   UNL     1     -44.860  -6.695 -27.676  0.00  0.00    +0.000 C 
ATOM      4  C   UNL     1     -45.418  -7.578 -26.634  0.00  0.00    +0.000 C 
ATOM      5  C   UNL     1     -47.482  -7.827 -25.184  0.00  0.00    +0.000 C 
ATOM      6  O   UNL     1     -44.913  -8.685 -26.313  0.00  0.00    +0.000 OA
ATOM      7  N   UNL     1     -46.592  -7.063 -26.043  0.00  0.00    +0.000 N 
ENDROOT
BRANCH   1  12
ATOM      8  C   UNL     1     -47.368  -1.500 -22.834  0.00  0.00    +0.000 C 
ATOM      9  C   UNL     1     -47.262  -2.612 -23.814  0.00  0.00    +0.000 A 
ATOM     10  C   UNL     1     -47.021  -3.914 -23.369  0.00  0.00    +0.000 A 
ATOM     11  C   UNL     1     -46.920  -4.961 -24.290  0.00  0.00    +0.000 A 
ATOM     12  C   UNL     1     -47.062  -4.706 -25.663  0.00  0.00    +0.000 A 
ATOM     13  C   UNL     1     -47.300  -3.400 -26.103  0.00  0.00    +0.000 A 
ATOM     14  C   UNL     1     -47.400  -2.354 -25.180  0.00  0.00    +0.000 A 
ENDBRANCH   1  12
BRANCH   2  15
ATOM     15  C   UNL     1     -46.405  -5.311 -29.055  0.00  0.00    +0.000 C 
ATOM     16  O   UNL     1     -46.848  -6.305 -29.689  0.00  0.00    +0.000 OA
ATOM     17  N   UNL     1     -46.445  -4.004 -29.635  0.00  0.00    +0.000 NA
BRANCH  17  18
ATOM     18  C   UNL     1     -46.988  -3.766 -30.963  0.00  0.00    +0.000 C 
BRANCH  18  19
ATOM     19  C   UNL     1     -46.067  -2.884 -31.729  0.00  0.00    +0.000 A 
ATOM     20  C   UNL     1     -45.839  -3.120 -33.089  0.00  0.00    +0.000 A 
ATOM     21  C   UNL     1     -44.954  -2.306 -33.802  0.00  0.00    +0.000 A 
ATOM     22  C   UNL     1     -44.293  -1.257 -33.155  0.00  0.00    +0.000 A 
ATOM     23  C   UNL     1     -44.514  -1.025 -31.794  0.00  0.00    +0.000 A 
ATOM     24  C   UNL     1     -45.398  -1.839 -31.080  0.00  0.00    +0.000 A 
ENDBRANCH  18  19
ENDBRANCH  17  18
ENDBRANCH   2  15
TORSDOF 4
ENDMDL
MODEL 2
REMARK VINA RESULT:      -7.1      2.401      3.267
REMARK  Name = ZINC000096181381 ZINC96181381 PubChem-97457251
REMARK  4 active torsions:
REMARK  status: ('A' for Active; 'I' for Inactive)
REMARK    1  A    between atoms: C_5  and  C_8
REMARK    2  A    between atoms: C_9  and  C_13
REMARK    3  A    between atoms: C_14  and  C_15
REMARK    4  A    between atoms: C_14  and  N_24
REMARK                            x       y       z     vdW  Elec       q    Type
REMARK                         _______ _______ _______ _____ _____    ______ ____
ROOT
ATOM      1  C   UNL     1     -46.015  -6.842 -30.026  0.00  0.00    +0.000 C 
ATOM      2  C   UNL     1     -44.495  -6.818 -30.273  0.00  0.00    +0.000 C 
ATOM      3  C   UNL     1     -44.022  -8.271 -30.418  0.00  0.00    +0.000 C 
ATOM      4  C   UNL     1     -45.256  -9.051 -30.197  0.00  0.00    +0.000 C 
ATOM      5  C   UNL     1     -47.756  -8.722 -29.947  0.00  0.00    +0.000 C 
ATOM      6  O   UNL     1     -45.305 -10.308 -30.241  0.00  0.00    +0.000 OA
ATOM      7  N   UNL     1     -46.385  -8.241 -29.946  0.00  0.00    +0.000 N 
ENDROOT
BRANCH   1  12
ATOM      8  C   UNL     1     -47.363  -3.975 -25.186  0.00  0.00    +0.000 C 
ATOM      9  C   UNL     1     -47.015  -4.718 -26.424  0.00  0.00    +0.000 A 
ATOM     10  C   UNL     1     -46.319  -5.926 -26.341  0.00  0.00    +0.000 A 
ATOM     11  C   UNL     1     -45.990  -6.626 -27.506  0.00  0.00    +0.000 A 
ATOM     12  C   UNL     1     -46.360  -6.116 -28.761  0.00  0.00    +0.000 A 
ATOM     13  C   UNL     1     -47.055  -4.905 -28.838  0.00  0.00    +0.000 A 
ATOM     14  C   UNL     1     -47.382  -4.206 -27.672  0.00  0.00    +0.000 A 
ENDBRANCH   1  12
BRANCH   2  15
ATOM     15  C   UNL     1     -44.175  -6.034 -31.503  0.00  0.00    +0.000 C 
ATOM     16  O   UNL     1     -43.030  -6.133 -32.018  0.00  0.00    +0.000 OA
ATOM     17  N   UNL     1     -45.160  -5.177 -32.085  0.00  0.00    +0.000 NA
BRANCH  17  18
ATOM     18  C   UNL     1     -44.891  -4.391 -33.278  0.00  0.00    +0.000 C 
BRANCH  18  19
ATOM     19  C   UNL     1     -44.681  -2.967 -32.903  0.00  0.00    +0.000 A 
ATOM     20  C   UNL     1     -43.820  -2.162 -33.657  0.00  0.00    +0.000 A 
ATOM     21  C   UNL     1     -43.603  -0.832 -33.289  0.00  0.00    +0.000 A 
ATOM     22  C   UNL     1     -44.244  -0.304 -32.163  0.00  0.00    +0.000 A 
ATOM     23  C   UNL     1     -45.099  -1.109 -31.404  0.00  0.00    +0.000 A 
ATOM     24  C   UNL     1     -45.315  -2.441 -31.771  0.00  0.00    +0.000 A 
ENDBRANCH  18  19
ENDBRANCH  17  18
ENDBRANCH   2  15
TORSDOF 4
ENDMDL
MODEL 3
REMARK VINA RESULT:      -6.9      9.796     14.292
REMARK  Name = ZINC000096181381 ZINC96181381 PubChem-97457251
REMARK  4 active torsions:
REMARK  status: ('A' for Active; 'I' for Inactive)
REMARK    1  A    between atoms: C_5  and  C_8
REMARK    2  A    between atoms: C_9  and  C_13
REMARK    3  A    between atoms: C_14  and  C_15
REMARK    4  A    between atoms: C_14  and  N_24
REMARK                            x       y       z     vdW  Elec       q    Type
REMARK                         _______ _______ _______ _____ _____    ______ ____
ROOT
ATOM      1  C   UNL     1     -43.978 -16.601 -25.730  0.00  0.00    +0.000 C 
ATOM      2  C   UNL     1     -44.641 -17.944 -26.092  0.00  0.00    +0.000 C 
ATOM      3  C   UNL     1     -43.566 -18.841 -26.721  0.00  0.00    +0.000 C 
ATOM      4  C   UNL     1     -42.373 -17.972 -26.743  0.00  0.00    +0.000 C 
ATOM      5  C   UNL     1     -41.570 -15.731 -25.872  0.00  0.00    +0.000 C 
ATOM      6  O   UNL     1     -41.251 -18.339 -27.181  0.00  0.00    +0.000 OA
ATOM      7  N   UNL     1     -42.612 -16.689 -26.206  0.00  0.00    +0.000 N 
ENDROOT
BRANCH   1  12
ATOM      8  C   UNL     1     -46.828 -12.185 -28.148  0.00  0.00    +0.000 C 
ATOM      9  C   UNL     1     -46.091 -13.320 -27.534  0.00  0.00    +0.000 A 
ATOM     10  C   UNL     1     -45.274 -14.131 -28.325  0.00  0.00    +0.000 A 
ATOM     11  C   UNL     1     -44.581 -15.200 -27.748  0.00  0.00    +0.000 A 
ATOM     12  C   UNL     1     -44.704 -15.458 -26.373  0.00  0.00    +0.000 A 
ATOM     13  C   UNL     1     -45.525 -14.644 -25.587  0.00  0.00    +0.000 A 
ATOM     14  C   UNL     1     -46.218 -13.576 -26.166  0.00  0.00    +0.000 A 
ENDBRANCH   1  12
BRANCH   2  15
ATOM     15  C   UNL     1     -45.220 -18.588 -24.876  0.00  0.00    +0.000 C 
ATOM     16  O   UNL     1     -46.205 -19.363 -24.998  0.00  0.00    +0.000 OA
ATOM     17  N   UNL     1     -44.663 -18.320 -23.586  0.00  0.00    +0.000 NA
BRANCH  17  18
ATOM     18  C   UNL     1     -45.199 -18.921 -22.375  0.00  0.00    +0.000 C 
BRANCH  18  19
ATOM     19  C   UNL     1     -45.599 -17.852 -21.422  0.00  0.00    +0.000 A 
ATOM     20  C   UNL     1     -45.441 -16.506 -21.769  0.00  0.00    +0.000 A 
ATOM     21  C   UNL     1     -45.794 -15.502 -20.863  0.00  0.00    +0.000 A 
ATOM     22  C   UNL     1     -46.303 -15.843 -19.605  0.00  0.00    +0.000 A 
ATOM     23  C   UNL     1     -46.454 -17.188 -19.253  0.00  0.00    +0.000 A 
ATOM     24  C   UNL     1     -46.100 -18.192 -20.159  0.00  0.00    +0.000 A 
ENDBRANCH  18  19
ENDBRANCH  17  18
ENDBRANCH   2  15
TORSDOF 4
ENDMDL
