MODEL 1
REMARK VINA RESULT:      -5.8      0.000      0.000
REMARK  Name = ZINC000003420494 ZINC03420494 PubChem-2539725
REMARK  7 active torsions:
REMARK  status: ('A' for Active; 'I' for Inactive)
REMARK    1  A    between atoms: C_2  and  C_3
REMARK    2  A    between atoms: C_2  and  O_23
REMARK    3  A    between atoms: C_4  and  N_25
REMARK    4  A    between atoms: C_6  and  N_26
REMARK    5  A    between atoms: C_9  and  O_20
REMARK    6  A    between atoms: C_11  and  C_12
REMARK    7  A    between atoms: C_11  and  O_23
REMARK                            x       y       z     vdW  Elec       q    Type
REMARK                         _______ _______ _______ _____ _____    ______ ____
ROOT
ATOM      1  C   UNL     1     -44.306 -15.629 -23.744  0.00  0.00    +0.000 C 
ATOM      2  O   UNL     1     -43.493 -15.040 -24.506  0.00  0.00    +0.000 OA
ATOM      3  N   UNL     1     -44.104 -15.548 -22.326  0.00  0.00    +0.000 NA
ENDROOT
BRANCH   3   4
ATOM      4  C   UNL     1     -44.737 -16.336 -21.307  0.00  0.00    +0.000 A 
ATOM      5  C   UNL     1     -44.241 -17.596 -20.942  0.00  0.00    +0.000 A 
ATOM      6  C   UNL     1     -44.846 -18.346 -19.927  0.00  0.00    +0.000 A 
ATOM      7  C   UNL     1     -45.961 -17.821 -19.263  0.00  0.00    +0.000 A 
ATOM      8  C   UNL     1     -46.459 -16.563 -19.608  0.00  0.00    +0.000 A 
ATOM      9  C   UNL     1     -45.849 -15.811 -20.627  0.00  0.00    +0.000 A 
BRANCH   6  12
ATOM     10  O   UNL     1     -43.279 -20.063 -20.106  0.00  0.00    +0.000 OA
ATOM     11  O   UNL     1     -44.972 -20.414 -18.643  0.00  0.00    +0.000 OA
ATOM     12  N   UNL     1     -44.323 -19.634 -19.573  0.00  0.00    +0.000 N 
ENDBRANCH   6  12
BRANCH   9  14
ATOM     13  C   UNL     1     -47.279 -13.837 -20.191  0.00  0.00    +0.000 C 
ATOM     14  O   UNL     1     -46.334 -14.547 -20.980  0.00  0.00    +0.000 OA
ENDBRANCH   9  14
ENDBRANCH   3   4
BRANCH   1  16
ATOM     15  C   UNL     1     -46.554 -15.441 -24.862  0.00  0.00    +0.000 C 
ATOM     16  C   UNL     1     -45.471 -16.370 -24.333  0.00  0.00    +0.000 C 
BRANCH  16  17
ATOM     17  O   UNL     1     -45.063 -17.339 -25.301  0.00  0.00    +0.000 OA
BRANCH  17  18
ATOM     18  C   UNL     1     -45.126 -18.727 -25.118  0.00  0.00    +0.000 C 
ATOM     19  O   UNL     1     -46.222 -19.344 -25.218  0.00  0.00    +0.000 OA
BRANCH  18  20
ATOM     20  C   UNL     1     -43.900 -19.464 -24.799  0.00  0.00    +0.000 A 
ATOM     21  C   UNL     1     -43.748 -20.334 -23.712  0.00  0.00    +0.000 A 
ATOM     22  C   UNL     1     -42.459 -20.867 -23.707  0.00  0.00    +0.000 A 
ATOM     23  C   UNL     1     -41.661 -20.454 -24.704  0.00  0.00    +0.000 A 
ATOM     24  C   UNL     1     -40.310 -21.030 -24.675  0.00  0.00    +0.000 C 
ATOM     25  C   UNL     1     -40.372 -21.934 -23.425  0.00  0.00    +0.000 C 
ATOM     26  C   UNL     1     -41.784 -21.815 -22.804  0.00  0.00    +0.000 C 
ATOM     27  S   UNL     1     -42.463 -19.379 -25.707  0.00  0.00    +0.000 S 
ENDBRANCH  18  20
ENDBRANCH  17  18
ENDBRANCH  16  17
ENDBRANCH   1  16
TORSDOF 7
ENDMDL
MODEL 2
REMARK VINA RESULT:      -5.5      1.884      5.262
REMARK  Name = ZINC000003420494 ZINC03420494 PubChem-2539725
REMARK  7 active torsions:
REMARK  status: ('A' for Active; 'I' for Inactive)
REMARK    1  A    between atoms: C_2  and  C_3
REMARK    2  A    between atoms: C_2  and  O_23
REMARK    3  A    between atoms: C_4  and  N_25
REMARK    4  A    between atoms: C_6  and  N_26
REMARK    5  A    between atoms: C_9  and  O_20
REMARK    6  A    between atoms: C_11  and  C_12
REMARK    7  A    between atoms: C_11  and  O_23
REMARK                            x       y       z     vdW  Elec       q    Type
REMARK                         _______ _______ _______ _____ _____    ______ ____
ROOT
ATOM      1  C   UNL     1     -42.646 -20.503 -22.919  0.00  0.00    +0.000 C 
ATOM      2  O   UNL     1     -42.457 -21.746 -22.834  0.00  0.00    +0.000 OA
ATOM      3  N   UNL     1     -43.076 -19.790 -21.750  0.00  0.00    +0.000 NA
ENDROOT
BRANCH   3   4
ATOM      4  C   UNL     1     -43.590 -18.451 -21.683  0.00  0.00    +0.000 A 
ATOM      5  C   UNL     1     -42.980 -17.397 -22.378  0.00  0.00    +0.000 A 
ATOM      6  C   UNL     1     -43.504 -16.101 -22.333  0.00  0.00    +0.000 A 
ATOM      7  C   UNL     1     -44.663 -15.860 -21.585  0.00  0.00    +0.000 A 
ATOM      8  C   UNL     1     -45.287 -16.902 -20.897  0.00  0.00    +0.000 A 
ATOM      9  C   UNL     1     -44.759 -18.204 -20.945  0.00  0.00    +0.000 A 
BRANCH   6  12
ATOM     10  O   UNL     1     -43.264 -13.861 -22.934  0.00  0.00    +0.000 OA
ATOM     11  O   UNL     1     -41.794 -15.304 -23.875  0.00  0.00    +0.000 OA
ATOM     12  N   UNL     1     -42.862 -15.038 -23.048  0.00  0.00    +0.000 N 
ENDBRANCH   6  12
BRANCH   9  14
ATOM     13  C   UNL     1     -46.723 -19.199 -19.810  0.00  0.00    +0.000 C 
ATOM     14  O   UNL     1     -45.377 -19.259 -20.265  0.00  0.00    +0.000 OA
ENDBRANCH   9  14
ENDBRANCH   3   4
BRANCH   1  16
ATOM     15  C   UNL     1     -40.932 -19.862 -24.647  0.00  0.00    +0.000 C 
ATOM     16  C   UNL     1     -42.391 -19.801 -24.221  0.00  0.00    +0.000 C 
BRANCH  16  17
ATOM     17  O   UNL     1     -43.279 -20.234 -25.252  0.00  0.00    +0.000 OA
BRANCH  17  18
ATOM     18  C   UNL     1     -44.573 -19.735 -25.455  0.00  0.00    +0.000 C 
ATOM     19  O   UNL     1     -45.557 -20.515 -25.572  0.00  0.00    +0.000 OA
BRANCH  18  20
ATOM     20  C   UNL     1     -44.777 -18.286 -25.537  0.00  0.00    +0.000 A 
ATOM     21  C   UNL     1     -45.778 -17.577 -24.859  0.00  0.00    +0.000 A 
ATOM     22  C   UNL     1     -45.685 -16.219 -25.160  0.00  0.00    +0.000 A 
ATOM     23  C   UNL     1     -44.697 -15.882 -26.004  0.00  0.00    +0.000 A 
ATOM     24  C   UNL     1     -44.622 -14.446 -26.304  0.00  0.00    +0.000 C 
ATOM     25  C   UNL     1     -45.791 -13.881 -25.468  0.00  0.00    +0.000 C 
ATOM     26  C   UNL     1     -46.475 -15.054 -24.727  0.00  0.00    +0.000 C 
ATOM     27  S   UNL     1     -43.824 -17.231 -26.474  0.00  0.00    +0.000 S 
ENDBRANCH  18  20
ENDBRANCH  17  18
ENDBRANCH  16  17
ENDBRANCH   1  16
TORSDOF 7
ENDMDL
MODEL 3
REMARK VINA RESULT:      -5.3      3.970      8.188
REMARK  Name = ZINC000003420494 ZINC03420494 PubChem-2539725
REMARK  7 active torsions:
REMARK  status: ('A' for Active; 'I' for Inactive)
REMARK    1  A    between atoms: C_2  and  C_3
REMARK    2  A    between atoms: C_2  and  O_23
REMARK    3  A    between atoms: C_4  and  N_25
REMARK    4  A    between atoms: C_6  and  N_26
REMARK    5  A    between atoms: C_9  and  O_20
REMARK    6  A    between atoms: C_11  and  C_12
REMARK    7  A    between atoms: C_11  and  O_23
REMARK                            x       y       z     vdW  Elec       q    Type
REMARK                         _______ _______ _______ _____ _____    ______ ____
ROOT
ATOM      1  C   UNL     1     -44.422 -15.535 -20.263  0.00  0.00    +0.000 C 
ATOM      2  O   UNL     1     -43.694 -15.169 -19.301  0.00  0.00    +0.000 OA
ATOM      3  N   UNL     1     -43.915 -15.406 -21.599  0.00  0.00    +0.000 NA
ENDROOT
BRANCH   3   4
ATOM      4  C   UNL     1     -44.652 -15.513 -22.827  0.00  0.00    +0.000 A 
ATOM      5  C   UNL     1     -44.793 -16.740 -23.490  0.00  0.00    +0.000 A 
ATOM      6  C   UNL     1     -45.537 -16.843 -24.671  0.00  0.00    +0.000 A 
ATOM      7  C   UNL     1     -46.155 -15.699 -25.189  0.00  0.00    +0.000 A 
ATOM      8  C   UNL     1     -46.031 -14.473 -24.533  0.00  0.00    +0.000 A 
ATOM      9  C   UNL     1     -45.284 -14.372 -23.347  0.00  0.00    +0.000 A 
BRANCH   6  12
ATOM     10  O   UNL     1     -44.893 -18.418 -26.264  0.00  0.00    +0.000 OA
ATOM     11  O   UNL     1     -46.649 -18.993 -24.955  0.00  0.00    +0.000 OA
ATOM     12  N   UNL     1     -45.666 -18.108 -25.334  0.00  0.00    +0.000 N 
ENDBRANCH   6  12
BRANCH   9  14
ATOM     13  C   UNL     1     -45.346 -11.896 -23.317  0.00  0.00    +0.000 C 
ATOM     14  O   UNL     1     -45.156 -13.151 -22.676  0.00  0.00    +0.000 OA
ENDBRANCH   9  14
ENDBRANCH   3   4
BRANCH   1  16
ATOM     15  C   UNL     1     -45.705 -17.474 -19.297  0.00  0.00    +0.000 C 
ATOM     16  C   UNL     1     -45.776 -16.120 -19.987  0.00  0.00    +0.000 C 
BRANCH  16  17
ATOM     17  O   UNL     1     -46.633 -15.203 -19.303  0.00  0.00    +0.000 OA
BRANCH  17  18
ATOM     18  C   UNL     1     -47.116 -14.005 -19.844  0.00  0.00    +0.000 C 
ATOM     19  O   UNL     1     -47.756 -13.997 -20.931  0.00  0.00    +0.000 OA
BRANCH  18  20
ATOM     20  C   UNL     1     -46.866 -12.746 -19.136  0.00  0.00    +0.000 A 
ATOM     21  C   UNL     1     -47.156 -11.471 -19.640  0.00  0.00    +0.000 A 
ATOM     22  C   UNL     1     -46.795 -10.499 -18.709  0.00  0.00    +0.000 A 
ATOM     23  C   UNL     1     -46.264 -10.964 -17.567  0.00  0.00    +0.000 A 
ATOM     24  C   UNL     1     -45.892  -9.919 -16.603  0.00  0.00    +0.000 C 
ATOM     25  C   UNL     1     -46.293  -8.631 -17.355  0.00  0.00    +0.000 C 
ATOM     26  C   UNL     1     -46.881  -9.029 -18.729  0.00  0.00    +0.000 C 
ATOM     27  S   UNL     1     -46.182 -12.636 -17.581  0.00  0.00    +0.000 S 
ENDBRANCH  18  20
ENDBRANCH  17  18
ENDBRANCH  16  17
ENDBRANCH   1  16
TORSDOF 7
ENDMDL
