MODEL 1
REMARK VINA RESULT:      -7.5      0.000      0.000
REMARK  Name = ZINC000096181258 ZINC96181258 PubChem-97457130
REMARK  4 active torsions:
REMARK  status: ('A' for Active; 'I' for Inactive)
REMARK    1  A    between atoms: C_5  and  C_8
REMARK    2  A    between atoms: C_9  and  C_13
REMARK    3  A    between atoms: C_14  and  C_15
REMARK    4  A    between atoms: C_14  and  N_24
REMARK                            x       y       z     vdW  Elec       q    Type
REMARK                         _______ _______ _______ _____ _____    ______ ____
ROOT
ATOM      1  C   UNL     1     -47.021  -5.943 -26.199  0.00  0.00    +0.000 C 
ATOM      2  C   UNL     1     -45.958  -5.715 -27.290  0.00  0.00    +0.000 C 
ATOM      3  C   UNL     1     -44.975  -6.893 -27.238  0.00  0.00    +0.000 C 
ATOM      4  C   UNL     1     -45.473  -7.697 -26.106  0.00  0.00    +0.000 C 
ATOM      5  C   UNL     1     -47.460  -7.848 -24.539  0.00  0.00    +0.000 C 
ATOM      6  O   UNL     1     -44.944  -8.775 -25.728  0.00  0.00    +0.000 OA
ATOM      7  N   UNL     1     -46.620  -7.146 -25.495  0.00  0.00    +0.000 N 
ENDROOT
BRANCH   1  12
ATOM      8  C   UNL     1     -47.280  -1.363 -22.673  0.00  0.00    +0.000 C 
ATOM      9  C   UNL     1     -47.214  -2.545 -23.571  0.00  0.00    +0.000 A 
ATOM     10  C   UNL     1     -47.378  -2.383 -24.950  0.00  0.00    +0.000 A 
ATOM     11  C   UNL     1     -47.316  -3.493 -25.797  0.00  0.00    +0.000 A 
ATOM     12  C   UNL     1     -47.091  -4.769 -25.269  0.00  0.00    +0.000 A 
ATOM     13  C   UNL     1     -46.925  -4.927 -23.884  0.00  0.00    +0.000 A 
ATOM     14  C   UNL     1     -46.986  -3.816 -23.038  0.00  0.00    +0.000 A 
ENDBRANCH   1  12
BRANCH   2  15
ATOM     15  C   UNL     1     -46.599  -5.622 -28.635  0.00  0.00    +0.000 C 
ATOM     16  O   UNL     1     -47.039  -6.668 -29.182  0.00  0.00    +0.000 OA
ATOM     17  N   UNL     1     -46.707  -4.358 -29.294  0.00  0.00    +0.000 NA
BRANCH  17  18
ATOM     18  C   UNL     1     -47.310  -4.224 -30.610  0.00  0.00    +0.000 C 
BRANCH  18  19
ATOM     19  C   UNL     1     -46.453  -3.357 -31.467  0.00  0.00    +0.000 A 
ATOM     20  C   UNL     1     -45.483  -2.543 -30.872  0.00  0.00    +0.000 A 
ATOM     21  C   UNL     1     -44.656  -1.742 -31.664  0.00  0.00    +0.000 A 
ATOM     22  C   UNL     1     -44.790  -1.759 -33.055  0.00  0.00    +0.000 A 
ATOM     23  C   UNL     1     -45.752  -2.577 -33.655  0.00  0.00    +0.000 A 
ATOM     24  C   UNL     1     -46.582  -3.379 -32.865  0.00  0.00    +0.000 A 
ATOM     25  F   UNL     1     -47.507  -4.172 -33.461  0.00  0.00    +0.000 F 
ENDBRANCH  18  19
ENDBRANCH  17  18
ENDBRANCH   2  15
TORSDOF 4
ENDMDL
MODEL 2
REMARK VINA RESULT:      -7.3      2.488      3.527
REMARK  Name = ZINC000096181258 ZINC96181258 PubChem-97457130
REMARK  4 active torsions:
REMARK  status: ('A' for Active; 'I' for Inactive)
REMARK    1  A    between atoms: C_5  and  C_8
REMARK    2  A    between atoms: C_9  and  C_13
REMARK    3  A    between atoms: C_14  and  C_15
REMARK    4  A    between atoms: C_14  and  N_24
REMARK                            x       y       z     vdW  Elec       q    Type
REMARK                         _______ _______ _______ _____ _____    ______ ____
ROOT
ATOM      1  C   UNL     1     -46.413  -6.377 -29.692  0.00  0.00    +0.000 C 
ATOM      2  C   UNL     1     -44.991  -6.074 -30.202  0.00  0.00    +0.000 C 
ATOM      3  C   UNL     1     -44.287  -7.415 -30.451  0.00  0.00    +0.000 C 
ATOM      4  C   UNL     1     -45.294  -8.407 -30.027  0.00  0.00    +0.000 C 
ATOM      5  C   UNL     1     -47.729  -8.550 -29.337  0.00  0.00    +0.000 C 
ATOM      6  O   UNL     1     -45.114  -9.652 -30.082  0.00  0.00    +0.000 OA
ATOM      7  N   UNL     1     -46.494  -7.821 -29.569  0.00  0.00    +0.000 N 
ENDROOT
BRANCH   1  12
ATOM      8  C   UNL     1     -47.388  -3.719 -24.646  0.00  0.00    +0.000 C 
ATOM      9  C   UNL     1     -47.135  -4.409 -25.938  0.00  0.00    +0.000 A 
ATOM     10  C   UNL     1     -47.569  -3.832 -27.134  0.00  0.00    +0.000 A 
ATOM     11  C   UNL     1     -47.332  -4.480 -28.350  0.00  0.00    +0.000 A 
ATOM     12  C   UNL     1     -46.662  -5.707 -28.374  0.00  0.00    +0.000 A 
ATOM     13  C   UNL     1     -46.225  -6.283 -27.171  0.00  0.00    +0.000 A 
ATOM     14  C   UNL     1     -46.462  -5.634 -25.956  0.00  0.00    +0.000 A 
ENDBRANCH   1  12
BRANCH   2  15
ATOM     15  C   UNL     1     -45.046  -5.266 -31.456  0.00  0.00    +0.000 C 
ATOM     16  O   UNL     1     -46.116  -4.676 -31.763  0.00  0.00    +0.000 OA
ATOM     17  N   UNL     1     -43.897  -5.169 -32.300  0.00  0.00    +0.000 NA
BRANCH  17  18
ATOM     18  C   UNL     1     -43.911  -4.406 -33.537  0.00  0.00    +0.000 C 
BRANCH  18  19
ATOM     19  C   UNL     1     -43.383  -3.035 -33.286  0.00  0.00    +0.000 A 
ATOM     20  C   UNL     1     -42.031  -2.865 -32.973  0.00  0.00    +0.000 A 
ATOM     21  C   UNL     1     -41.515  -1.584 -32.758  0.00  0.00    +0.000 A 
ATOM     22  C   UNL     1     -42.350  -0.468 -32.862  0.00  0.00    +0.000 A 
ATOM     23  C   UNL     1     -43.701  -0.633 -33.182  0.00  0.00    +0.000 A 
ATOM     24  C   UNL     1     -44.220  -1.913 -33.398  0.00  0.00    +0.000 A 
ATOM     25  F   UNL     1     -45.531  -2.057 -33.713  0.00  0.00    +0.000 F 
ENDBRANCH  18  19
ENDBRANCH  17  18
ENDBRANCH   2  15
TORSDOF 4
ENDMDL
MODEL 3
REMARK VINA RESULT:      -7.2      2.793      3.936
REMARK  Name = ZINC000096181258 ZINC96181258 PubChem-97457130
REMARK  4 active torsions:
REMARK  status: ('A' for Active; 'I' for Inactive)
REMARK    1  A    between atoms: C_5  and  C_8
REMARK    2  A    between atoms: C_9  and  C_13
REMARK    3  A    between atoms: C_14  and  C_15
REMARK    4  A    between atoms: C_14  and  N_24
REMARK                            x       y       z     vdW  Elec       q    Type
REMARK                         _______ _______ _______ _____ _____    ______ ____
ROOT
ATOM      1  C   UNL     1     -45.859  -6.785 -30.215  0.00  0.00    +0.000 C 
ATOM      2  C   UNL     1     -44.327  -6.885 -30.346  0.00  0.00    +0.000 C 
ATOM      3  C   UNL     1     -43.969  -8.366 -30.528  0.00  0.00    +0.000 C 
ATOM      4  C   UNL     1     -45.278  -9.042 -30.439  0.00  0.00    +0.000 C 
ATOM      5  C   UNL     1     -47.754  -8.507 -30.362  0.00  0.00    +0.000 C 
ATOM      6  O   UNL     1     -45.430 -10.287 -30.550  0.00  0.00    +0.000 OA
ATOM      7  N   UNL     1     -46.352  -8.149 -30.233  0.00  0.00    +0.000 N 
ENDROOT
BRANCH   1  12
ATOM      8  C   UNL     1     -47.345  -4.022 -25.354  0.00  0.00    +0.000 C 
ATOM      9  C   UNL     1     -46.961  -4.739 -26.598  0.00  0.00    +0.000 A 
ATOM     10  C   UNL     1     -47.237  -4.169 -27.844  0.00  0.00    +0.000 A 
ATOM     11  C   UNL     1     -46.877  -4.843 -29.015  0.00  0.00    +0.000 A 
ATOM     12  C   UNL     1     -46.242  -6.087 -28.945  0.00  0.00    +0.000 A 
ATOM     13  C   UNL     1     -45.965  -6.654 -27.691  0.00  0.00    +0.000 A 
ATOM     14  C   UNL     1     -46.325  -5.980 -26.521  0.00  0.00    +0.000 A 
ENDBRANCH   1  12
BRANCH   2  15
ATOM     15  C   UNL     1     -43.847  -6.079 -31.507  0.00  0.00    +0.000 C 
ATOM     16  O   UNL     1     -42.633  -6.138 -31.838  0.00  0.00    +0.000 OA
ATOM     17  N   UNL     1     -44.756  -5.245 -32.229  0.00  0.00    +0.000 NA
BRANCH  17  18
ATOM     18  C   UNL     1     -44.329  -4.432 -33.355  0.00  0.00    +0.000 C 
BRANCH  18  19
ATOM     19  C   UNL     1     -44.268  -3.001 -32.945  0.00  0.00    +0.000 A 
ATOM     20  C   UNL     1     -45.032  -2.563 -31.858  0.00  0.00    +0.000 A 
ATOM     21  C   UNL     1     -44.968  -1.229 -31.447  0.00  0.00    +0.000 A 
ATOM     22  C   UNL     1     -44.134  -0.330 -32.117  0.00  0.00    +0.000 A 
ATOM     23  C   UNL     1     -43.362  -0.765 -33.199  0.00  0.00    +0.000 A 
ATOM     24  C   UNL     1     -43.425  -2.099 -33.613  0.00  0.00    +0.000 A 
ATOM     25  F   UNL     1     -42.666  -2.508 -34.660  0.00  0.00    +0.000 F 
ENDBRANCH  18  19
ENDBRANCH  17  18
ENDBRANCH   2  15
TORSDOF 4
ENDMDL
