MODEL 1
REMARK VINA RESULT:      -6.5      0.000      0.000
REMARK  Name = ZINC000033554565 MCULE-1829814183 MolPort-035-945-407
REMARK  7 active torsions:
REMARK  status: ('A' for Active; 'I' for Inactive)
REMARK    1  A    between atoms: C_2  and  C_3
REMARK    2  A    between atoms: C_2  and  N_25
REMARK    3  A    between atoms: C_3  and  C_4
REMARK    4  A    between atoms: C_4  and  O_29
REMARK    5  A    between atoms: C_6  and  C_16
REMARK    6  A    between atoms: C_17  and  N_28
REMARK    7  A    between atoms: C_23  and  O_32
REMARK                            x       y       z     vdW  Elec       q    Type
REMARK                         _______ _______ _______ _____ _____    ______ ____
ROOT
ATOM      1  C   UNL     1     -46.903  -5.240 -27.744  0.00  0.00    +0.000 A 
ATOM      2  C   UNL     1     -46.680  -6.752 -29.252  0.00  0.00    +0.000 A 
ATOM      3  C   UNL     1     -46.542  -7.416 -28.025  0.00  0.00    +0.000 A 
ATOM      4  C   UNL     1     -46.690  -6.409 -27.089  0.00  0.00    +0.000 A 
ATOM      5  C   UNL     1     -46.660  -6.431 -25.700  0.00  0.00    +0.000 A 
ATOM      6  C   UNL     1     -46.824  -5.243 -23.657  0.00  0.00    +0.000 A 
ATOM      7  C   UNL     1     -47.017  -4.063 -22.942  0.00  0.00    +0.000 A 
ATOM      8  C   UNL     1     -47.241  -2.873 -23.630  0.00  0.00    +0.000 A 
ATOM      9  C   UNL     1     -47.270  -2.866 -25.022  0.00  0.00    +0.000 A 
ATOM     10  C   UNL     1     -47.516  -1.579 -25.736  0.00  0.00    +0.000 C 
ATOM     11  C   UNL     1     -47.073  -4.068 -25.723  0.00  0.00    +0.000 A 
ATOM     12  N   UNL     1     -46.896  -5.421 -29.071  0.00  0.00    +0.000 N 
ATOM     13  N   UNL     1     -46.851  -5.250 -25.023  0.00  0.00    +0.000 N 
ATOM     14  N   UNL     1     -47.099  -4.071 -27.091  0.00  0.00    +0.000 NA
ATOM     15  O   UNL     1     -46.461  -7.517 -25.086  0.00  0.00    +0.000 OA
ENDROOT
BRANCH   2  16
ATOM     16  C   UNL     1     -46.614  -7.433 -30.559  0.00  0.00    +0.000 C 
ATOM     17  N   UNL     1     -45.479  -7.256 -31.415  0.00  0.00    +0.000 NA
ATOM     18  O   UNL     1     -47.546  -8.211 -30.900  0.00  0.00    +0.000 OA
BRANCH  17  19
ATOM     19  C   UNL     1     -45.430  -7.600 -32.805  0.00  0.00    +0.000 A 
ATOM     20  C   UNL     1     -44.685  -8.722 -33.185  0.00  0.00    +0.000 A 
ATOM     21  C   UNL     1     -44.594  -9.094 -34.527  0.00  0.00    +0.000 A 
ATOM     22  C   UNL     1     -43.824 -10.305 -34.913  0.00  0.00    +0.000 C 
ATOM     23  C   UNL     1     -45.239  -8.336 -35.507  0.00  0.00    +0.000 A 
ATOM     24  C   UNL     1     -45.962  -7.198 -35.143  0.00  0.00    +0.000 A 
ATOM     25  C   UNL     1     -46.054  -6.809 -33.795  0.00  0.00    +0.000 A 
BRANCH  25  27
ATOM     26  C   UNL     1     -47.206  -4.695 -34.387  0.00  0.00    +0.000 C 
ATOM     27  O   UNL     1     -46.727  -5.636 -33.435  0.00  0.00    +0.000 OA
ENDBRANCH  25  27
ENDBRANCH  17  19
ENDBRANCH   2  16
BRANCH  12  28
ATOM     28  C   UNL     1     -47.165  -4.400 -30.077  0.00  0.00    +0.000 C 
BRANCH  28  29
ATOM     29  C   UNL     1     -45.864  -3.774 -30.539  0.00  0.00    +0.000 C 
BRANCH  29  30
ATOM     30  C   UNL     1     -46.164  -2.628 -31.482  0.00  0.00    +0.000 C 
BRANCH  30  32
ATOM     31  C   UNL     1     -44.566  -1.180 -31.951  0.00  0.00    +0.000 C 
ATOM     32  O   UNL     1     -45.554  -1.466 -31.009  0.00  0.00    +0.000 OA
ENDBRANCH  30  32
ENDBRANCH  29  30
ENDBRANCH  28  29
ENDBRANCH  12  28
TORSDOF 7
ENDMDL
MODEL 2
REMARK VINA RESULT:      -6.5     10.585     12.447
REMARK  Name = ZINC000033554565 MCULE-1829814183 MolPort-035-945-407
REMARK  7 active torsions:
REMARK  status: ('A' for Active; 'I' for Inactive)
REMARK    1  A    between atoms: C_2  and  C_3
REMARK    2  A    between atoms: C_2  and  N_25
REMARK    3  A    between atoms: C_3  and  C_4
REMARK    4  A    between atoms: C_4  and  O_29
REMARK    5  A    between atoms: C_6  and  C_16
REMARK    6  A    between atoms: C_17  and  N_28
REMARK    7  A    between atoms: C_23  and  O_32
REMARK                            x       y       z     vdW  Elec       q    Type
REMARK                         _______ _______ _______ _____ _____    ______ ____
ROOT
ATOM      1  C   UNL     1     -45.350 -16.398 -22.732  0.00  0.00    +0.000 A 
ATOM      2  C   UNL     1     -44.788 -17.825 -24.235  0.00  0.00    +0.000 A 
ATOM      3  C   UNL     1     -45.068 -18.576 -23.085  0.00  0.00    +0.000 A 
ATOM      4  C   UNL     1     -45.421 -17.621 -22.148  0.00  0.00    +0.000 A 
ATOM      5  C   UNL     1     -45.810 -17.734 -20.819  0.00  0.00    +0.000 A 
ATOM      6  C   UNL     1     -46.496 -16.669 -18.818  0.00  0.00    +0.000 A 
ATOM      7  C   UNL     1     -46.815 -15.523 -18.090  0.00  0.00    +0.000 A 
ATOM      8  C   UNL     1     -46.743 -14.277 -18.707  0.00  0.00    +0.000 A 
ATOM      9  C   UNL     1     -46.353 -14.178 -20.040  0.00  0.00    +0.000 A 
ATOM     10  C   UNL     1     -46.287 -12.832 -20.679  0.00  0.00    +0.000 C 
ATOM     11  C   UNL     1     -46.037 -15.347 -20.755  0.00  0.00    +0.000 A 
ATOM     12  N   UNL     1     -44.957 -16.494 -24.009  0.00  0.00    +0.000 N 
ATOM     13  N   UNL     1     -46.114 -16.586 -20.127  0.00  0.00    +0.000 N 
ATOM     14  N   UNL     1     -45.652 -15.260 -22.066  0.00  0.00    +0.000 NA
ATOM     15  O   UNL     1     -45.877 -18.870 -20.271  0.00  0.00    +0.000 OA
ENDROOT
BRANCH   2  16
ATOM     16  C   UNL     1     -44.379 -18.425 -25.520  0.00  0.00    +0.000 C 
ATOM     17  N   UNL     1     -43.018 -18.346 -25.959  0.00  0.00    +0.000 NA
ATOM     18  O   UNL     1     -45.230 -19.049 -26.210  0.00  0.00    +0.000 OA
BRANCH  17  19
ATOM     19  C   UNL     1     -42.564 -18.604 -27.293  0.00  0.00    +0.000 A 
ATOM     20  C   UNL     1     -42.337 -19.933 -27.670  0.00  0.00    +0.000 A 
ATOM     21  C   UNL     1     -41.883 -20.239 -28.954  0.00  0.00    +0.000 A 
ATOM     22  C   UNL     1     -41.676 -21.656 -29.352  0.00  0.00    +0.000 C 
ATOM     23  C   UNL     1     -41.637 -19.215 -29.871  0.00  0.00    +0.000 A 
ATOM     24  C   UNL     1     -41.832 -17.883 -29.497  0.00  0.00    +0.000 A 
ATOM     25  C   UNL     1     -42.283 -17.562 -28.204  0.00  0.00    +0.000 A 
BRANCH  25  27
ATOM     26  C   UNL     1     -43.323 -15.324 -28.431  0.00  0.00    +0.000 C 
ATOM     27  O   UNL     1     -42.421 -16.227 -27.807  0.00  0.00    +0.000 OA
ENDBRANCH  25  27
ENDBRANCH  17  19
ENDBRANCH   2  16
BRANCH  12  28
ATOM     28  C   UNL     1     -44.844 -15.391 -24.956  0.00  0.00    +0.000 C 
BRANCH  28  29
ATOM     29  C   UNL     1     -46.224 -14.943 -25.396  0.00  0.00    +0.000 C 
BRANCH  29  30
ATOM     30  C   UNL     1     -46.095 -13.789 -26.367  0.00  0.00    +0.000 C 
BRANCH  30  32
ATOM     31  C   UNL     1     -46.695 -11.719 -26.837  0.00  0.00    +0.000 C 
ATOM     32  O   UNL     1     -46.610 -12.632 -25.785  0.00  0.00    +0.000 OA
ENDBRANCH  30  32
ENDBRANCH  29  30
ENDBRANCH  28  29
ENDBRANCH  12  28
TORSDOF 7
ENDMDL
MODEL 3
REMARK VINA RESULT:      -6.3      1.635      2.518
REMARK  Name = ZINC000033554565 MCULE-1829814183 MolPort-035-945-407
REMARK  7 active torsions:
REMARK  status: ('A' for Active; 'I' for Inactive)
REMARK    1  A    between atoms: C_2  and  C_3
REMARK    2  A    between atoms: C_2  and  N_25
REMARK    3  A    between atoms: C_3  and  C_4
REMARK    4  A    between atoms: C_4  and  O_29
REMARK    5  A    between atoms: C_6  and  C_16
REMARK    6  A    between atoms: C_17  and  N_28
REMARK    7  A    between atoms: C_23  and  O_32
REMARK                            x       y       z     vdW  Elec       q    Type
REMARK                         _______ _______ _______ _____ _____    ______ ____
ROOT
ATOM      1  C   UNL     1     -46.588  -5.265 -27.870  0.00  0.00    +0.000 A 
ATOM      2  C   UNL     1     -46.106  -6.718 -29.376  0.00  0.00    +0.000 A 
ATOM      3  C   UNL     1     -45.970  -7.383 -28.150  0.00  0.00    +0.000 A 
ATOM      4  C   UNL     1     -46.285  -6.414 -27.214  0.00  0.00    +0.000 A 
ATOM      5  C   UNL     1     -46.337  -6.456 -25.827  0.00  0.00    +0.000 A 
ATOM      6  C   UNL     1     -46.755  -5.328 -23.786  0.00  0.00    +0.000 A 
ATOM      7  C   UNL     1     -47.122  -4.188 -23.072  0.00  0.00    +0.000 A 
ATOM      8  C   UNL     1     -47.436  -3.019 -23.761  0.00  0.00    +0.000 A 
ATOM      9  C   UNL     1     -47.381  -2.992 -25.153  0.00  0.00    +0.000 A 
ATOM     10  C   UNL     1     -47.725  -1.729 -25.868  0.00  0.00    +0.000 C 
ATOM     11  C   UNL     1     -47.009  -4.153 -25.852  0.00  0.00    +0.000 A 
ATOM     12  N   UNL     1     -46.480  -5.422 -29.196  0.00  0.00    +0.000 N 
ATOM     13  N   UNL     1     -46.699  -5.315 -25.151  0.00  0.00    +0.000 N 
ATOM     14  N   UNL     1     -46.951  -4.136 -27.219  0.00  0.00    +0.000 NA
ATOM     15  O   UNL     1     -46.056  -7.523 -25.212  0.00  0.00    +0.000 OA
ENDROOT
BRANCH   2  16
ATOM     16  C   UNL     1     -45.885  -7.365 -30.683  0.00  0.00    +0.000 C 
ATOM     17  N   UNL     1     -46.705  -8.464 -31.099  0.00  0.00    +0.000 NA
ATOM     18  O   UNL     1     -44.996  -6.914 -31.455  0.00  0.00    +0.000 OA
BRANCH  17  19
ATOM     19  C   UNL     1     -46.404  -9.360 -32.176  0.00  0.00    +0.000 A 
ATOM     20  C   UNL     1     -46.714  -8.957 -33.479  0.00  0.00    +0.000 A 
ATOM     21  C   UNL     1     -46.453  -9.796 -34.564  0.00  0.00    +0.000 A 
ATOM     22  C   UNL     1     -46.760  -9.343 -35.946  0.00  0.00    +0.000 C 
ATOM     23  C   UNL     1     -45.888 -11.055 -34.352  0.00  0.00    +0.000 A 
ATOM     24  C   UNL     1     -45.600 -11.480 -33.053  0.00  0.00    +0.000 A 
ATOM     25  C   UNL     1     -45.866 -10.646 -31.953  0.00  0.00    +0.000 A 
BRANCH  25  27
ATOM     26  C   UNL     1     -46.252 -12.253 -30.105  0.00  0.00    +0.000 C 
ATOM     27  O   UNL     1     -45.634 -11.092 -30.647  0.00  0.00    +0.000 OA
ENDBRANCH  25  27
ENDBRANCH  17  19
ENDBRANCH   2  16
BRANCH  12  28
ATOM     28  C   UNL     1     -46.800  -4.421 -30.206  0.00  0.00    +0.000 C 
BRANCH  28  29
ATOM     29  C   UNL     1     -45.556  -3.633 -30.566  0.00  0.00    +0.000 C 
BRANCH  29  30
ATOM     30  C   UNL     1     -45.915  -2.549 -31.560  0.00  0.00    +0.000 C 
BRANCH  30  32
ATOM     31  C   UNL     1     -44.534  -0.882 -31.987  0.00  0.00    +0.000 C 
ATOM     32  O   UNL     1     -45.495  -1.312 -31.071  0.00  0.00    +0.000 OA
ENDBRANCH  30  32
ENDBRANCH  29  30
ENDBRANCH  28  29
ENDBRANCH  12  28
TORSDOF 7
ENDMDL
