MODEL 1
REMARK VINA RESULT:      -6.8      0.000      0.000
REMARK  Name = ZINC000096182878 ZINC96182878 PubChem-97458170
REMARK  3 active torsions:
REMARK  status: ('A' for Active; 'I' for Inactive)
REMARK    1  A    between atoms: C_6  and  N_21
REMARK    2  A    between atoms: C_8  and  C_9
REMARK    3  A    between atoms: C_10  and  C_14
REMARK                            x       y       z     vdW  Elec       q    Type
REMARK                         _______ _______ _______ _____ _____    ______ ____
ROOT
ATOM      1  C   UNL     1     -45.969  -3.410 -31.247  0.00  0.00    +0.000 C 
ATOM      2  C   UNL     1     -44.664  -3.947 -31.868  0.00  0.00    +0.000 C 
ATOM      3  C   UNL     1     -46.237  -5.000 -33.526  0.00  0.00    +0.000 C 
ATOM      4  C   UNL     1     -47.381  -4.335 -32.834  0.00  0.00    +0.000 C 
ATOM      5  C   UNL     1     -43.827  -5.684 -33.491  0.00  0.00    +0.000 C 
ATOM      6  N   UNL     1     -44.922  -4.877 -32.972  0.00  0.00    +0.000 N 
ATOM      7  O   UNL     1     -46.447  -5.711 -34.545  0.00  0.00    +0.000 OA
ATOM      8  O   UNL     1     -46.971  -3.136 -32.211  0.00  0.00    +0.000 OA
ENDROOT
BRANCH   2   9
ATOM      9  C   UNL     1     -43.792  -2.815 -32.319  0.00  0.00    +0.000 A 
ATOM     10  C   UNL     1     -42.404  -2.925 -32.181  0.00  0.00    +0.000 A 
ATOM     11  C   UNL     1     -41.570  -1.885 -32.602  0.00  0.00    +0.000 A 
ATOM     12  C   UNL     1     -42.122  -0.729 -33.164  0.00  0.00    +0.000 A 
ATOM     13  C   UNL     1     -43.508  -0.615 -33.306  0.00  0.00    +0.000 A 
ATOM     14  C   UNL     1     -44.342  -1.654 -32.886  0.00  0.00    +0.000 A 
ATOM     15  F   UNL     1     -41.314   0.278 -33.570  0.00  0.00    +0.000 F 
ENDBRANCH   2   9
BRANCH   1  16
ATOM     16  C   UNL     1     -46.462  -4.222 -30.083  0.00  0.00    +0.000 C 
ATOM     17  N   UNL     1     -45.670  -5.310 -29.581  0.00  0.00    +0.000 NA
ATOM     18  O   UNL     1     -47.585  -3.952 -29.584  0.00  0.00    +0.000 OA
BRANCH  17  24
ATOM     19  C   UNL     1     -46.490  -6.109 -24.735  0.00  0.00    +0.000 C 
ATOM     20  C   UNL     1     -46.409  -6.604 -26.134  0.00  0.00    +0.000 A 
ATOM     21  C   UNL     1     -46.659  -7.949 -26.415  0.00  0.00    +0.000 A 
ATOM     22  C   UNL     1     -46.581  -8.414 -27.731  0.00  0.00    +0.000 A 
ATOM     23  C   UNL     1     -46.255  -7.531 -28.765  0.00  0.00    +0.000 A 
ATOM     24  C   UNL     1     -46.003  -6.182 -28.492  0.00  0.00    +0.000 A 
ATOM     25  C   UNL     1     -46.082  -5.722 -27.169  0.00  0.00    +0.000 A 
ATOM     26  C   UNL     1     -46.847  -9.844 -28.031  0.00  0.00    +0.000 C 
ENDBRANCH  17  24
ENDBRANCH   1  16
TORSDOF 3
ENDMDL
MODEL 2
REMARK VINA RESULT:      -6.6      6.800      9.930
REMARK  Name = ZINC000096182878 ZINC96182878 PubChem-97458170
REMARK  3 active torsions:
REMARK  status: ('A' for Active; 'I' for Inactive)
REMARK    1  A    between atoms: C_6  and  N_21
REMARK    2  A    between atoms: C_8  and  C_9
REMARK    3  A    between atoms: C_10  and  C_14
REMARK                            x       y       z     vdW  Elec       q    Type
REMARK                         _______ _______ _______ _____ _____    ______ ____
ROOT
ATOM      1  C   UNL     1     -46.134 -12.033 -26.175  0.00  0.00    +0.000 C 
ATOM      2  C   UNL     1     -45.090 -11.212 -26.957  0.00  0.00    +0.000 C 
ATOM      3  C   UNL     1     -46.137 -12.336 -28.950  0.00  0.00    +0.000 C 
ATOM      4  C   UNL     1     -47.121 -12.992 -28.038  0.00  0.00    +0.000 C 
ATOM      5  C   UNL     1     -43.989 -11.075 -29.220  0.00  0.00    +0.000 C 
ATOM      6  N   UNL     1     -45.084 -11.546 -28.385  0.00  0.00    +0.000 N 
ATOM      7  O   UNL     1     -46.203 -12.535 -30.192  0.00  0.00    +0.000 OA
ATOM      8  O   UNL     1     -47.347 -12.208 -26.886  0.00  0.00    +0.000 OA
ENDROOT
BRANCH   2   9
ATOM      9  C   UNL     1     -45.315  -9.744 -26.755  0.00  0.00    +0.000 A 
ATOM     10  C   UNL     1     -46.354  -9.111 -27.445  0.00  0.00    +0.000 A 
ATOM     11  C   UNL     1     -46.587  -7.745 -27.265  0.00  0.00    +0.000 A 
ATOM     12  C   UNL     1     -45.781  -7.005 -26.394  0.00  0.00    +0.000 A 
ATOM     13  C   UNL     1     -44.742  -7.633 -25.701  0.00  0.00    +0.000 A 
ATOM     14  C   UNL     1     -44.509  -9.000 -25.879  0.00  0.00    +0.000 A 
ATOM     15  F   UNL     1     -46.007  -5.682 -26.222  0.00  0.00    +0.000 F 
ENDBRANCH   2   9
BRANCH   1  16
ATOM     16  C   UNL     1     -45.588 -13.306 -25.593  0.00  0.00    +0.000 C 
ATOM     17  N   UNL     1     -46.445 -14.175 -24.838  0.00  0.00    +0.000 NA
ATOM     18  O   UNL     1     -44.369 -13.575 -25.754  0.00  0.00    +0.000 OA
BRANCH  17  24
ATOM     19  C   UNL     1     -45.584 -19.075 -25.048  0.00  0.00    +0.000 C 
ATOM     20  C   UNL     1     -45.650 -17.803 -24.283  0.00  0.00    +0.000 A 
ATOM     21  C   UNL     1     -45.351 -17.792 -22.918  0.00  0.00    +0.000 A 
ATOM     22  C   UNL     1     -45.414 -16.595 -22.199  0.00  0.00    +0.000 A 
ATOM     23  C   UNL     1     -45.776 -15.410 -22.846  0.00  0.00    +0.000 A 
ATOM     24  C   UNL     1     -46.078 -15.412 -24.212  0.00  0.00    +0.000 A 
ATOM     25  C   UNL     1     -46.013 -16.616 -24.928  0.00  0.00    +0.000 A 
ATOM     26  C   UNL     1     -45.096 -16.583 -20.748  0.00  0.00    +0.000 C 
ENDBRANCH  17  24
ENDBRANCH   1  16
TORSDOF 3
ENDMDL
MODEL 3
REMARK VINA RESULT:      -6.5     10.430     13.294
REMARK  Name = ZINC000096182878 ZINC96182878 PubChem-97458170
REMARK  3 active torsions:
REMARK  status: ('A' for Active; 'I' for Inactive)
REMARK    1  A    between atoms: C_6  and  N_21
REMARK    2  A    between atoms: C_8  and  C_9
REMARK    3  A    between atoms: C_10  and  C_14
REMARK                            x       y       z     vdW  Elec       q    Type
REMARK                         _______ _______ _______ _____ _____    ______ ____
ROOT
ATOM      1  C   UNL     1     -45.070 -16.441 -25.585  0.00  0.00    +0.000 C 
ATOM      2  C   UNL     1     -44.778 -14.928 -25.602  0.00  0.00    +0.000 C 
ATOM      3  C   UNL     1     -42.388 -15.688 -25.406  0.00  0.00    +0.000 C 
ATOM      4  C   UNL     1     -42.853 -17.105 -25.478  0.00  0.00    +0.000 C 
ATOM      5  C   UNL     1     -42.954 -13.269 -25.078  0.00  0.00    +0.000 C 
ATOM      6  N   UNL     1     -43.361 -14.637 -25.366  0.00  0.00    +0.000 N 
ATOM      7  O   UNL     1     -41.157 -15.435 -25.315  0.00  0.00    +0.000 OA
ATOM      8  O   UNL     1     -44.055 -17.209 -26.210  0.00  0.00    +0.000 OA
ENDROOT
BRANCH   2   9
ATOM      9  C   UNL     1     -45.238 -14.318 -26.892  0.00  0.00    +0.000 A 
ATOM     10  C   UNL     1     -46.336 -13.450 -26.883  0.00  0.00    +0.000 A 
ATOM     11  C   UNL     1     -46.778 -12.864 -28.073  0.00  0.00    +0.000 A 
ATOM     12  C   UNL     1     -46.122 -13.143 -29.276  0.00  0.00    +0.000 A 
ATOM     13  C   UNL     1     -45.024 -14.007 -29.290  0.00  0.00    +0.000 A 
ATOM     14  C   UNL     1     -44.582 -14.594 -28.101  0.00  0.00    +0.000 A 
ATOM     15  F   UNL     1     -46.552 -12.575 -30.428  0.00  0.00    +0.000 F 
ENDBRANCH   2   9
BRANCH   1  16
ATOM     16  C   UNL     1     -45.472 -16.963 -24.235  0.00  0.00    +0.000 C 
ATOM     17  N   UNL     1     -45.311 -16.139 -23.070  0.00  0.00    +0.000 NA
ATOM     18  O   UNL     1     -45.918 -18.137 -24.144  0.00  0.00    +0.000 OA
BRANCH  17  24
ATOM     19  C   UNL     1     -45.711 -19.508 -19.426  0.00  0.00    +0.000 C 
ATOM     20  C   UNL     1     -45.839 -18.113 -19.919  0.00  0.00    +0.000 A 
ATOM     21  C   UNL     1     -46.283 -17.105 -19.059  0.00  0.00    +0.000 A 
ATOM     22  C   UNL     1     -46.404 -15.793 -19.525  0.00  0.00    +0.000 A 
ATOM     23  C   UNL     1     -46.079 -15.489 -20.850  0.00  0.00    +0.000 A 
ATOM     24  C   UNL     1     -45.633 -16.492 -21.718  0.00  0.00    +0.000 A 
ATOM     25  C   UNL     1     -45.514 -17.807 -21.245  0.00  0.00    +0.000 A 
ATOM     26  C   UNL     1     -46.876 -14.721 -18.611  0.00  0.00    +0.000 C 
ENDBRANCH  17  24
ENDBRANCH   1  16
TORSDOF 3
ENDMDL
