MODEL 1
REMARK VINA RESULT:      -6.6      0.000      0.000
REMARK  Name = ZINC000493967022
REMARK  7 active torsions:
REMARK  status: ('A' for Active; 'I' for Inactive)
REMARK    1  A    between atoms: C_2  and  O_25
REMARK    2  A    between atoms: C_5  and  C_6
REMARK    3  A    between atoms: C_7  and  C_8
REMARK    4  A    between atoms: C_9  and  C_10
REMARK    5  A    between atoms: C_9  and  N_28
REMARK    6  A    between atoms: C_12  and  C_13
REMARK    7  A    between atoms: C_17  and  C_18
REMARK                            x       y       z     vdW  Elec       q    Type
REMARK                         _______ _______ _______ _____ _____    ______ ____
ROOT
ATOM      1  C   UNL     1     -44.161 -19.498 -25.350  0.00  0.00    +0.000 C 
ATOM      2  O   UNL     1     -45.182 -20.227 -25.240  0.00  0.00    +0.000 OA
ATOM      3  N   UNL     1     -43.136 -19.530 -24.353  0.00  0.00    +0.000 NA
ENDROOT
BRANCH   1   5
ATOM      4  C   UNL     1     -43.374 -17.262 -26.122  0.00  0.00    +0.000 C 
ATOM      5  C   UNL     1     -44.031 -18.594 -26.532  0.00  0.00    +0.000 C 
ATOM      6  C   UNL     1     -43.148 -19.239 -27.609  0.00  0.00    +0.000 C 
ATOM      7  C   UNL     1     -42.064 -18.254 -27.791  0.00  0.00    +0.000 C 
ATOM      8  C   UNL     1     -41.167 -16.119 -26.759  0.00  0.00    +0.000 C 
ATOM      9  O   UNL     1     -41.103 -18.412 -28.590  0.00  0.00    +0.000 OA
ATOM     10  N   UNL     1     -42.204 -17.118 -26.967  0.00  0.00    +0.000 N 
BRANCH   4  14
ATOM     11  C   UNL     1     -46.130 -13.991 -26.622  0.00  0.00    +0.000 A 
ATOM     12  C   UNL     1     -46.066 -14.692 -25.414  0.00  0.00    +0.000 A 
ATOM     13  C   UNL     1     -45.167 -15.753 -25.259  0.00  0.00    +0.000 A 
ATOM     14  C   UNL     1     -44.323 -16.119 -26.311  0.00  0.00    +0.000 A 
ATOM     15  C   UNL     1     -44.387 -15.422 -27.526  0.00  0.00    +0.000 A 
ATOM     16  C   UNL     1     -45.286 -14.363 -27.681  0.00  0.00    +0.000 A 
BRANCH  11  18
ATOM     17  C   UNL     1     -46.636 -11.571 -26.723  0.00  0.00    +0.000 C 
ATOM     18  O   UNL     1     -47.037 -12.935 -26.744  0.00  0.00    +0.000 OA
ENDBRANCH  11  18
ENDBRANCH   4  14
ENDBRANCH   1   5
BRANCH   3  19
ATOM     19  C   UNL     1     -43.213 -20.402 -23.194  0.00  0.00    +0.000 C 
BRANCH  19  20
ATOM     20  C   UNL     1     -43.685 -19.623 -22.018  0.00  0.00    +0.000 A 
ATOM     21  C   UNL     1     -44.058 -19.066 -19.994  0.00  0.00    +0.000 A 
ATOM     22  C   UNL     1     -44.669 -18.169 -20.847  0.00  0.00    +0.000 A 
ATOM     23  N   UNL     1     -43.436 -19.993 -20.746  0.00  0.00    +0.000 NA
ATOM     24  N   UNL     1     -44.442 -18.516 -22.126  0.00  0.00    +0.000 NA
BRANCH  22  25
ATOM     25  C   UNL     1     -45.469 -17.001 -20.440  0.00  0.00    +0.000 A 
ATOM     26  C   UNL     1     -46.183 -17.010 -19.232  0.00  0.00    +0.000 A 
ATOM     27  C   UNL     1     -46.942 -15.899 -18.853  0.00  0.00    +0.000 A 
ATOM     28  C   UNL     1     -46.992 -14.773 -19.678  0.00  0.00    +0.000 A 
ATOM     29  C   UNL     1     -46.284 -14.756 -20.882  0.00  0.00    +0.000 A 
ATOM     30  C   UNL     1     -45.524 -15.867 -21.262  0.00  0.00    +0.000 A 
BRANCH  29  31
ATOM     31  C   UNL     1     -46.337 -13.600 -21.731  0.00  0.00    +0.000 C 
ATOM     32  N   UNL     1     -46.379 -12.667 -22.417  0.00  0.00    +0.000 NA
ENDBRANCH  29  31
ENDBRANCH  22  25
ENDBRANCH  19  20
ENDBRANCH   3  19
TORSDOF 7
ENDMDL
MODEL 2
REMARK VINA RESULT:      -6.6      9.010     13.514
REMARK  Name = ZINC000493967022
REMARK  7 active torsions:
REMARK  status: ('A' for Active; 'I' for Inactive)
REMARK    1  A    between atoms: C_2  and  O_25
REMARK    2  A    between atoms: C_5  and  C_6
REMARK    3  A    between atoms: C_7  and  C_8
REMARK    4  A    between atoms: C_9  and  C_10
REMARK    5  A    between atoms: C_9  and  N_28
REMARK    6  A    between atoms: C_12  and  C_13
REMARK    7  A    between atoms: C_17  and  C_18
REMARK                            x       y       z     vdW  Elec       q    Type
REMARK                         _______ _______ _______ _____ _____    ______ ____
ROOT
ATOM      1  C   UNL     1     -46.892  -4.312 -30.717  0.00  0.00    +0.000 C 
ATOM      2  O   UNL     1     -47.360  -3.575 -29.808  0.00  0.00    +0.000 OA
ATOM      3  N   UNL     1     -46.714  -5.713 -30.495  0.00  0.00    +0.000 NA
ENDROOT
BRANCH   1   5
ATOM      4  C   UNL     1     -45.150  -4.229 -32.497  0.00  0.00    +0.000 C 
ATOM      5  C   UNL     1     -46.523  -3.707 -32.031  0.00  0.00    +0.000 C 
ATOM      6  C   UNL     1     -47.553  -4.080 -33.105  0.00  0.00    +0.000 C 
ATOM      7  C   UNL     1     -46.739  -4.755 -34.136  0.00  0.00    +0.000 C 
ATOM      8  C   UNL     1     -44.390  -5.631 -34.506  0.00  0.00    +0.000 C 
ATOM      9  O   UNL     1     -47.215  -5.239 -35.197  0.00  0.00    +0.000 OA
ATOM     10  N   UNL     1     -45.370  -4.817 -33.805  0.00  0.00    +0.000 N 
BRANCH   4  14
ATOM     11  C   UNL     1     -42.312  -0.997 -32.726  0.00  0.00    +0.000 A 
ATOM     12  C   UNL     1     -43.634  -0.818 -33.145  0.00  0.00    +0.000 A 
ATOM     13  C   UNL     1     -44.550  -1.872 -33.066  0.00  0.00    +0.000 A 
ATOM     14  C   UNL     1     -44.151  -3.114 -32.565  0.00  0.00    +0.000 A 
ATOM     15  C   UNL     1     -42.825  -3.301 -32.149  0.00  0.00    +0.000 A 
ATOM     16  C   UNL     1     -41.910  -2.248 -32.228  0.00  0.00    +0.000 A 
BRANCH  11  18
ATOM     17  C   UNL     1     -40.194   0.119 -32.100  0.00  0.00    +0.000 C 
ATOM     18  O   UNL     1     -41.422   0.077 -32.815  0.00  0.00    +0.000 OA
ENDBRANCH  11  18
ENDBRANCH   4  14
ENDBRANCH   1   5
BRANCH   3  19
ATOM     19  C   UNL     1     -47.072  -6.348 -29.238  0.00  0.00    +0.000 C 
BRANCH  19  20
ATOM     20  C   UNL     1     -47.070  -7.826 -29.411  0.00  0.00    +0.000 A 
ATOM     21  C   UNL     1     -47.401  -9.750 -30.267  0.00  0.00    +0.000 A 
ATOM     22  C   UNL     1     -46.857  -9.886 -29.005  0.00  0.00    +0.000 A 
ATOM     23  N   UNL     1     -47.539  -8.435 -30.518  0.00  0.00    +0.000 NA
ATOM     24  N   UNL     1     -46.649  -8.676 -28.457  0.00  0.00    +0.000 NA
BRANCH  22  25
ATOM     25  C   UNL     1     -46.551 -11.159 -28.331  0.00  0.00    +0.000 A 
ATOM     26  C   UNL     1     -46.418 -12.345 -29.069  0.00  0.00    +0.000 A 
ATOM     27  C   UNL     1     -46.129 -13.550 -28.423  0.00  0.00    +0.000 A 
ATOM     28  C   UNL     1     -45.972 -13.579 -27.036  0.00  0.00    +0.000 A 
ATOM     29  C   UNL     1     -46.103 -12.402 -26.293  0.00  0.00    +0.000 A 
ATOM     30  C   UNL     1     -46.391 -11.196 -26.939  0.00  0.00    +0.000 A 
BRANCH  29  31
ATOM     31  C   UNL     1     -45.944 -12.432 -24.867  0.00  0.00    +0.000 C 
ATOM     32  N   UNL     1     -45.817 -12.455 -23.716  0.00  0.00    +0.000 NA
ENDBRANCH  29  31
ENDBRANCH  22  25
ENDBRANCH  19  20
ENDBRANCH   3  19
TORSDOF 7
ENDMDL
MODEL 3
REMARK VINA RESULT:      -6.5      7.926     12.749
REMARK  Name = ZINC000493967022
REMARK  7 active torsions:
REMARK  status: ('A' for Active; 'I' for Inactive)
REMARK    1  A    between atoms: C_2  and  O_25
REMARK    2  A    between atoms: C_5  and  C_6
REMARK    3  A    between atoms: C_7  and  C_8
REMARK    4  A    between atoms: C_9  and  C_10
REMARK    5  A    between atoms: C_9  and  N_28
REMARK    6  A    between atoms: C_12  and  C_13
REMARK    7  A    between atoms: C_17  and  C_18
REMARK                            x       y       z     vdW  Elec       q    Type
REMARK                         _______ _______ _______ _____ _____    ______ ____
ROOT
ATOM      1  C   UNL     1     -46.529  -6.126 -33.767  0.00  0.00    +0.000 C 
ATOM      2  O   UNL     1     -46.529  -5.976 -35.018  0.00  0.00    +0.000 OA
ATOM      3  N   UNL     1     -46.476  -7.435 -33.194  0.00  0.00    +0.000 NA
ENDROOT
BRANCH   1   5
ATOM      4  C   UNL     1     -45.339  -4.850 -31.988  0.00  0.00    +0.000 C 
ATOM      5  C   UNL     1     -46.588  -4.923 -32.885  0.00  0.00    +0.000 C 
ATOM      6  C   UNL     1     -46.635  -3.640 -33.726  0.00  0.00    +0.000 C 
ATOM      7  C   UNL     1     -45.454  -2.887 -33.259  0.00  0.00    +0.000 C 
ATOM      8  C   UNL     1     -43.406  -3.174 -31.793  0.00  0.00    +0.000 C 
ATOM      9  O   UNL     1     -45.114  -1.764 -33.718  0.00  0.00    +0.000 OA
ATOM     10  N   UNL     1     -44.731  -3.560 -32.253  0.00  0.00    +0.000 N 
BRANCH   4  14
ATOM     11  C   UNL     1     -46.439  -5.195 -27.838  0.00  0.00    +0.000 A 
ATOM     12  C   UNL     1     -47.119  -4.317 -28.686  0.00  0.00    +0.000 A 
ATOM     13  C   UNL     1     -46.757  -4.212 -30.033  0.00  0.00    +0.000 A 
ATOM     14  C   UNL     1     -45.712  -4.986 -30.543  0.00  0.00    +0.000 A 
ATOM     15  C   UNL     1     -45.022  -5.866 -29.695  0.00  0.00    +0.000 A 
ATOM     16  C   UNL     1     -45.384  -5.970 -28.349  0.00  0.00    +0.000 A 
BRANCH  11  18
ATOM     17  C   UNL     1     -46.346  -6.288 -25.619  0.00  0.00    +0.000 C 
ATOM     18  O   UNL     1     -46.827  -5.280 -26.498  0.00  0.00    +0.000 OA
ENDBRANCH  11  18
ENDBRANCH   4  14
ENDBRANCH   1   5
BRANCH   3  19
ATOM     19  C   UNL     1     -46.403  -8.634 -34.011  0.00  0.00    +0.000 C 
BRANCH  19  20
ATOM     20  C   UNL     1     -46.022  -9.792 -33.158  0.00  0.00    +0.000 A 
ATOM     21  C   UNL     1     -45.208 -11.672 -32.568  0.00  0.00    +0.000 A 
ATOM     22  C   UNL     1     -45.894 -11.106 -31.512  0.00  0.00    +0.000 A 
ATOM     23  N   UNL     1     -45.297 -10.832 -33.616  0.00  0.00    +0.000 NA
ATOM     24  N   UNL     1     -46.415  -9.922 -31.878  0.00  0.00    +0.000 NA
BRANCH  22  25
ATOM     25  C   UNL     1     -46.058 -11.700 -30.174  0.00  0.00    +0.000 A 
ATOM     26  C   UNL     1     -45.794 -13.061 -29.958  0.00  0.00    +0.000 A 
ATOM     27  C   UNL     1     -45.953 -13.618 -28.686  0.00  0.00    +0.000 A 
ATOM     28  C   UNL     1     -46.376 -12.819 -27.621  0.00  0.00    +0.000 A 
ATOM     29  C   UNL     1     -46.640 -11.462 -27.827  0.00  0.00    +0.000 A 
ATOM     30  C   UNL     1     -46.481 -10.904 -29.100  0.00  0.00    +0.000 A 
BRANCH  29  31
ATOM     31  C   UNL     1     -47.077 -10.641 -26.734  0.00  0.00    +0.000 C 
ATOM     32  N   UNL     1     -47.431  -9.979 -25.852  0.00  0.00    +0.000 NA
ENDBRANCH  29  31
ENDBRANCH  22  25
ENDBRANCH  19  20
ENDBRANCH   3  19
TORSDOF 7
ENDMDL
