MODEL 1
REMARK VINA RESULT:      -6.0      0.000      0.000
REMARK  Name = ZINC000005348225 PubChem-7643528
REMARK  7 active torsions:
REMARK  status: ('A' for Active; 'I' for Inactive)
REMARK    1  A    between atoms: C_5  and  C_8
REMARK    2  A    between atoms: C_8  and  C_9
REMARK    3  A    between atoms: C_8  and  C_15
REMARK    4  A    between atoms: C_9  and  C_10
REMARK    5  A    between atoms: C_11  and  C_12
REMARK    6  A    between atoms: C_11  and  N_24
REMARK    7  A    between atoms: C_12  and  N_25
REMARK                            x       y       z     vdW  Elec       q    Type
REMARK                         _______ _______ _______ _____ _____    ______ ____
ROOT
ATOM      1  C   UNL     1     -44.552 -18.392 -22.839  0.00  0.00    +0.000 C 
ENDROOT
BRANCH   1   2
ATOM      2  C   UNL     1     -43.727 -19.619 -22.420  0.00  0.00    +0.000 C 
ATOM      3  C   UNL     1     -43.427 -20.539 -23.612  0.00  0.00    +0.000 C 
ATOM      4  C   UNL     1     -42.163 -21.371 -23.375  0.00  0.00    +0.000 C 
ATOM      5  C   UNL     1     -41.607 -20.452 -21.322  0.00  0.00    +0.000 C 
ATOM      6  C   UNL     1     -42.417 -19.210 -21.742  0.00  0.00    +0.000 C 
ATOM      7  C   UNL     1     -41.823 -20.665 -19.837  0.00  0.00    +0.000 C 
ATOM      8  C   UNL     1     -40.127 -20.184 -21.542  0.00  0.00    +0.000 C 
ATOM      9  O   UNL     1     -41.999 -21.640 -22.000  0.00  0.00    +0.000 OA
ENDBRANCH   1   2
BRANCH   1  14
ATOM     10  C   UNL     1     -47.225 -15.996 -18.298  0.00  0.00    +0.000 C 
ATOM     11  C   UNL     1     -46.536 -16.603 -19.466  0.00  0.00    +0.000 A 
ATOM     12  C   UNL     1     -45.944 -15.784 -20.432  0.00  0.00    +0.000 A 
ATOM     13  C   UNL     1     -45.297 -16.356 -21.532  0.00  0.00    +0.000 A 
ATOM     14  C   UNL     1     -45.241 -17.752 -21.670  0.00  0.00    +0.000 A 
ATOM     15  C   UNL     1     -45.834 -18.567 -20.698  0.00  0.00    +0.000 A 
ATOM     16  C   UNL     1     -46.480 -17.994 -19.599  0.00  0.00    +0.000 A 
ENDBRANCH   1  14
BRANCH   1  17
ATOM     17  C   UNL     1     -45.588 -18.738 -23.907  0.00  0.00    +0.000 C 
BRANCH  17  18
ATOM     18  C   UNL     1     -45.273 -18.052 -25.193  0.00  0.00    +0.000 C 
ATOM     19  O   UNL     1     -45.140 -18.727 -26.250  0.00  0.00    +0.000 OA
ATOM     20  N   UNL     1     -45.112 -16.635 -25.211  0.00  0.00    +0.000 NA
BRANCH  20  21
ATOM     21  C   UNL     1     -44.813 -15.909 -26.435  0.00  0.00    +0.000 C 
BRANCH  21  22
ATOM     22  C   UNL     1     -43.423 -15.302 -26.348  0.00  0.00    +0.000 C 
BRANCH  22  25
ATOM     23  C   UNL     1     -42.504 -16.839 -27.850  0.00  0.00    +0.000 C 
ATOM     24  C   UNL     1     -43.684 -14.997 -28.644  0.00  0.00    +0.000 C 
ATOM     25  N   UNL     1     -42.740 -15.424 -27.627  0.00  0.00    +0.000 NA
ENDBRANCH  22  25
ENDBRANCH  21  22
ENDBRANCH  20  21
ENDBRANCH  17  18
ENDBRANCH   1  17
TORSDOF 7
ENDMDL
MODEL 2
REMARK VINA RESULT:      -6.0      2.375      3.213
REMARK  Name = ZINC000005348225 PubChem-7643528
REMARK  7 active torsions:
REMARK  status: ('A' for Active; 'I' for Inactive)
REMARK    1  A    between atoms: C_5  and  C_8
REMARK    2  A    between atoms: C_8  and  C_9
REMARK    3  A    between atoms: C_8  and  C_15
REMARK    4  A    between atoms: C_9  and  C_10
REMARK    5  A    between atoms: C_11  and  C_12
REMARK    6  A    between atoms: C_11  and  N_24
REMARK    7  A    between atoms: C_12  and  N_25
REMARK                            x       y       z     vdW  Elec       q    Type
REMARK                         _______ _______ _______ _____ _____    ______ ____
ROOT
ATOM      1  C   UNL     1     -45.263 -16.428 -23.629  0.00  0.00    +0.000 C 
ENDROOT
BRANCH   1   2
ATOM      2  C   UNL     1     -44.856 -17.904 -23.765  0.00  0.00    +0.000 C 
ATOM      3  C   UNL     1     -45.814 -18.678 -24.680  0.00  0.00    +0.000 C 
ATOM      4  C   UNL     1     -45.131 -19.897 -25.307  0.00  0.00    +0.000 C 
ATOM      5  C   UNL     1     -43.028 -19.529 -24.406  0.00  0.00    +0.000 C 
ATOM      6  C   UNL     1     -43.422 -18.044 -24.283  0.00  0.00    +0.000 C 
ATOM      7  C   UNL     1     -42.183 -19.885 -23.200  0.00  0.00    +0.000 C 
ATOM      8  C   UNL     1     -42.170 -19.719 -25.647  0.00  0.00    +0.000 C 
ATOM      9  O   UNL     1     -44.144 -20.411 -24.440  0.00  0.00    +0.000 OA
ENDBRANCH   1   2
BRANCH   1  14
ATOM     10  C   UNL     1     -46.858 -15.187 -18.205  0.00  0.00    +0.000 C 
ATOM     11  C   UNL     1     -46.450 -15.498 -19.600  0.00  0.00    +0.000 A 
ATOM     12  C   UNL     1     -46.627 -14.546 -20.607  0.00  0.00    +0.000 A 
ATOM     13  C   UNL     1     -46.244 -14.839 -21.920  0.00  0.00    +0.000 A 
ATOM     14  C   UNL     1     -45.684 -16.088 -22.229  0.00  0.00    +0.000 A 
ATOM     15  C   UNL     1     -45.507 -17.037 -21.215  0.00  0.00    +0.000 A 
ATOM     16  C   UNL     1     -45.890 -16.742 -19.903  0.00  0.00    +0.000 A 
ENDBRANCH   1  14
BRANCH   1  17
ATOM     17  C   UNL     1     -46.384 -16.054 -24.597  0.00  0.00    +0.000 C 
BRANCH  17  18
ATOM     18  C   UNL     1     -45.879 -15.151 -25.670  0.00  0.00    +0.000 C 
ATOM     19  O   UNL     1     -44.970 -15.547 -26.450  0.00  0.00    +0.000 OA
ATOM     20  N   UNL     1     -46.423 -13.838 -25.796  0.00  0.00    +0.000 NA
BRANCH  20  21
ATOM     21  C   UNL     1     -45.976 -12.915 -26.827  0.00  0.00    +0.000 C 
BRANCH  21  22
ATOM     22  C   UNL     1     -47.007 -12.844 -27.940  0.00  0.00    +0.000 C 
BRANCH  22  25
ATOM     23  C   UNL     1     -45.605 -11.318 -29.020  0.00  0.00    +0.000 C 
ATOM     24  C   UNL     1     -45.387 -13.597 -29.436  0.00  0.00    +0.000 C 
ATOM     25  N   UNL     1     -46.360 -12.544 -29.208  0.00  0.00    +0.000 NA
ENDBRANCH  22  25
ENDBRANCH  21  22
ENDBRANCH  20  21
ENDBRANCH  17  18
ENDBRANCH   1  17
TORSDOF 7
ENDMDL
MODEL 3
REMARK VINA RESULT:      -5.8      3.969      7.721
REMARK  Name = ZINC000005348225 PubChem-7643528
REMARK  7 active torsions:
REMARK  status: ('A' for Active; 'I' for Inactive)
REMARK    1  A    between atoms: C_5  and  C_8
REMARK    2  A    between atoms: C_8  and  C_9
REMARK    3  A    between atoms: C_8  and  C_15
REMARK    4  A    between atoms: C_9  and  C_10
REMARK    5  A    between atoms: C_11  and  C_12
REMARK    6  A    between atoms: C_11  and  N_24
REMARK    7  A    between atoms: C_12  and  N_25
REMARK                            x       y       z     vdW  Elec       q    Type
REMARK                         _______ _______ _______ _____ _____    ______ ____
ROOT
ATOM      1  C   UNL     1     -44.678 -18.318 -20.050  0.00  0.00    +0.000 C 
ENDROOT
BRANCH   1   2
ATOM      2  C   UNL     1     -45.552 -17.074 -19.822  0.00  0.00    +0.000 C 
ATOM      3  C   UNL     1     -46.907 -17.436 -19.197  0.00  0.00    +0.000 C 
ATOM      4  C   UNL     1     -47.500 -16.256 -18.421  0.00  0.00    +0.000 C 
ATOM      5  C   UNL     1     -45.726 -14.798 -18.734  0.00  0.00    +0.000 C 
ATOM      6  C   UNL     1     -44.840 -16.041 -18.946  0.00  0.00    +0.000 C 
ATOM      7  C   UNL     1     -45.242 -13.717 -19.678  0.00  0.00    +0.000 C 
ATOM      8  C   UNL     1     -45.546 -14.289 -17.313  0.00  0.00    +0.000 C 
ATOM      9  O   UNL     1     -47.104 -15.033 -19.002  0.00  0.00    +0.000 OA
ENDBRANCH   1   2
BRANCH   1  14
ATOM     10  C   UNL     1     -44.599 -19.831 -25.636  0.00  0.00    +0.000 C 
ATOM     11  C   UNL     1     -44.612 -19.446 -24.201  0.00  0.00    +0.000 A 
ATOM     12  C   UNL     1     -43.602 -19.899 -23.347  0.00  0.00    +0.000 A 
ATOM     13  C   UNL     1     -43.615 -19.537 -21.997  0.00  0.00    +0.000 A 
ATOM     14  C   UNL     1     -44.641 -18.722 -21.494  0.00  0.00    +0.000 A 
ATOM     15  C   UNL     1     -45.648 -18.269 -22.355  0.00  0.00    +0.000 A 
ATOM     16  C   UNL     1     -45.634 -18.631 -23.705  0.00  0.00    +0.000 A 
ENDBRANCH   1  14
BRANCH   1  17
ATOM     17  C   UNL     1     -45.143 -19.504 -19.206  0.00  0.00    +0.000 C 
BRANCH  17  18
ATOM     18  C   UNL     1     -44.005 -20.090 -18.443  0.00  0.00    +0.000 C 
ATOM     19  O   UNL     1     -43.933 -21.339 -18.279  0.00  0.00    +0.000 OA
ATOM     20  N   UNL     1     -43.010 -19.227 -17.892  0.00  0.00    +0.000 NA
BRANCH  20  21
ATOM     21  C   UNL     1     -41.874 -19.741 -17.145  0.00  0.00    +0.000 C 
BRANCH  21  22
ATOM     22  C   UNL     1     -40.713 -20.007 -18.088  0.00  0.00    +0.000 C 
BRANCH  22  25
ATOM     23  C   UNL     1     -40.666 -21.754 -16.536  0.00  0.00    +0.000 C 
ATOM     24  C   UNL     1     -40.623 -22.219 -18.815  0.00  0.00    +0.000 C 
ATOM     25  N   UNL     1     -40.121 -21.305 -17.805  0.00  0.00    +0.000 NA
ENDBRANCH  22  25
ENDBRANCH  21  22
ENDBRANCH  20  21
ENDBRANCH  17  18
ENDBRANCH   1  17
TORSDOF 7
ENDMDL
