MODEL 1
REMARK VINA RESULT:      -5.6      0.000      0.000
REMARK  Name = ZINC000006509149 ZINC06509149 PubChem-7987030
REMARK  8 active torsions:
REMARK  status: ('A' for Active; 'I' for Inactive)
REMARK    1  A    between atoms: C_2  and  C_3
REMARK    2  A    between atoms: C_3  and  C_4
REMARK    3  A    between atoms: C_4  and  N_24
REMARK    4  A    between atoms: C_5  and  C_17
REMARK    5  A    between atoms: C_6  and  C_9
REMARK    6  A    between atoms: C_10  and  C_11
REMARK    7  A    between atoms: C_10  and  N_25
REMARK    8  A    between atoms: C_20  and  O_28
REMARK                            x       y       z     vdW  Elec       q    Type
REMARK                         _______ _______ _______ _____ _____    ______ ____
ROOT
ATOM      1  C   UNL     1     -44.152 -17.080 -22.955  0.00  0.00    +0.000 C 
ATOM      2  C   UNL     1     -45.136 -18.208 -22.595  0.00  0.00    +0.000 C 
ATOM      3  C   UNL     1     -45.620 -18.855 -23.900  0.00  0.00    +0.000 C 
ATOM      4  C   UNL     1     -44.974 -18.027 -24.939  0.00  0.00    +0.000 C 
ATOM      5  N   UNL     1     -44.143 -17.017 -24.408  0.00  0.00    +0.000 N 
ATOM      6  O   UNL     1     -45.131 -18.211 -26.175  0.00  0.00    +0.000 OA
ENDROOT
BRANCH   1   7
ATOM      7  C   UNL     1     -44.584 -15.776 -22.359  0.00  0.00    +0.000 A 
ATOM      8  C   UNL     1     -43.648 -14.864 -21.848  0.00  0.00    +0.000 A 
ATOM      9  C   UNL     1     -44.078 -13.657 -21.292  0.00  0.00    +0.000 A 
ATOM     10  C   UNL     1     -45.447 -13.350 -21.239  0.00  0.00    +0.000 A 
ATOM     11  C   UNL     1     -46.375 -14.262 -21.749  0.00  0.00    +0.000 A 
ATOM     12  C   UNL     1     -45.947 -15.470 -22.307  0.00  0.00    +0.000 A 
BRANCH  10  14
ATOM     13  C   UNL     1     -47.017 -12.090 -19.802  0.00  0.00    +0.000 C 
ATOM     14  O   UNL     1     -45.909 -12.150 -20.689  0.00  0.00    +0.000 OA
ENDBRANCH  10  14
ENDBRANCH   1   7
BRANCH   2  15
ATOM     15  C   UNL     1     -44.515 -19.212 -21.668  0.00  0.00    +0.000 C 
ATOM     16  N   UNL     1     -45.067 -19.521 -20.382  0.00  0.00    +0.000 NA
ATOM     17  O   UNL     1     -43.475 -19.813 -22.043  0.00  0.00    +0.000 OA
BRANCH  16  18
ATOM     18  C   UNL     1     -46.256 -18.883 -19.837  0.00  0.00    +0.000 C 
BRANCH  18  19
ATOM     19  C   UNL     1     -45.895 -17.572 -19.234  0.00  0.00    +0.000 A 
ATOM     20  C   UNL     1     -46.899 -16.661 -18.891  0.00  0.00    +0.000 A 
ATOM     21  C   UNL     1     -46.563 -15.436 -18.307  0.00  0.00    +0.000 A 
ATOM     22  C   UNL     1     -45.223 -15.124 -18.062  0.00  0.00    +0.000 A 
ATOM     23  C   UNL     1     -44.219 -16.038 -18.396  0.00  0.00    +0.000 A 
ATOM     24  C   UNL     1     -44.554 -17.263 -18.980  0.00  0.00    +0.000 A 
ATOM     25 CL   UNL     1     -44.801 -13.590 -17.331  0.00  0.00    +0.000 Cl
ENDBRANCH  18  19
ENDBRANCH  16  18
ENDBRANCH   2  15
BRANCH   5  26
ATOM     26  C   UNL     1     -43.301 -16.134 -25.202  0.00  0.00    +0.000 C 
BRANCH  26  27
ATOM     27  C   UNL     1     -44.162 -15.150 -25.979  0.00  0.00    +0.000 C 
BRANCH  27  29
ATOM     28  C   UNL     1     -45.384 -13.146 -25.148  0.00  0.00    +0.000 C 
ATOM     29  C   UNL     1     -44.019 -13.754 -25.404  0.00  0.00    +0.000 C 
ENDBRANCH  27  29
ENDBRANCH  26  27
ENDBRANCH   5  26
TORSDOF 8
ENDMDL
MODEL 2
REMARK VINA RESULT:      -5.5     10.580     14.091
REMARK  Name = ZINC000006509149 ZINC06509149 PubChem-7987030
REMARK  8 active torsions:
REMARK  status: ('A' for Active; 'I' for Inactive)
REMARK    1  A    between atoms: C_2  and  C_3
REMARK    2  A    between atoms: C_3  and  C_4
REMARK    3  A    between atoms: C_4  and  N_24
REMARK    4  A    between atoms: C_5  and  C_17
REMARK    5  A    between atoms: C_6  and  C_9
REMARK    6  A    between atoms: C_10  and  C_11
REMARK    7  A    between atoms: C_10  and  N_25
REMARK    8  A    between atoms: C_20  and  O_28
REMARK                            x       y       z     vdW  Elec       q    Type
REMARK                         _______ _______ _______ _____ _____    ______ ____
ROOT
ATOM      1  C   UNL     1     -45.558  -5.195 -31.760  0.00  0.00    +0.000 C 
ATOM      2  C   UNL     1     -46.682  -5.788 -32.628  0.00  0.00    +0.000 C 
ATOM      3  C   UNL     1     -47.050  -4.755 -33.702  0.00  0.00    +0.000 C 
ATOM      4  C   UNL     1     -46.199  -3.599 -33.355  0.00  0.00    +0.000 C 
ATOM      5  N   UNL     1     -45.352  -3.843 -32.253  0.00  0.00    +0.000 N 
ATOM      6  O   UNL     1     -46.208  -2.510 -33.989  0.00  0.00    +0.000 OA
ENDROOT
BRANCH   1   7
ATOM      7  C   UNL     1     -45.938  -5.192 -30.311  0.00  0.00    +0.000 A 
ATOM      8  C   UNL     1     -47.150  -4.630 -29.878  0.00  0.00    +0.000 A 
ATOM      9  C   UNL     1     -47.478  -4.635 -28.520  0.00  0.00    +0.000 A 
ATOM     10  C   UNL     1     -46.599  -5.200 -27.582  0.00  0.00    +0.000 A 
ATOM     11  C   UNL     1     -45.394  -5.758 -28.019  0.00  0.00    +0.000 A 
ATOM     12  C   UNL     1     -45.064  -5.754 -29.377  0.00  0.00    +0.000 A 
BRANCH  10  14
ATOM     13  C   UNL     1     -47.348  -4.072 -25.512  0.00  0.00    +0.000 C 
ATOM     14  O   UNL     1     -46.899  -5.221 -26.216  0.00  0.00    +0.000 OA
ENDBRANCH  10  14
ENDBRANCH   1   7
BRANCH   2  15
ATOM     15  C   UNL     1     -46.287  -7.105 -33.228  0.00  0.00    +0.000 C 
ATOM     16  N   UNL     1     -46.814  -8.354 -32.766  0.00  0.00    +0.000 NA
ATOM     17  O   UNL     1     -45.467  -7.108 -34.183  0.00  0.00    +0.000 OA
BRANCH  16  18
ATOM     18  C   UNL     1     -47.755  -8.477 -31.663  0.00  0.00    +0.000 C 
BRANCH  18  19
ATOM     19  C   UNL     1     -47.027  -8.820 -30.412  0.00  0.00    +0.000 A 
ATOM     20  C   UNL     1     -45.717  -9.308 -30.480  0.00  0.00    +0.000 A 
ATOM     21  C   UNL     1     -45.024  -9.615 -29.305  0.00  0.00    +0.000 A 
ATOM     22  C   UNL     1     -45.638  -9.429 -28.063  0.00  0.00    +0.000 A 
ATOM     23  C   UNL     1     -46.944  -8.934 -27.994  0.00  0.00    +0.000 A 
ATOM     24  C   UNL     1     -47.638  -8.627 -29.169  0.00  0.00    +0.000 A 
ATOM     25 CL   UNL     1     -44.771  -9.812 -26.591  0.00  0.00    +0.000 Cl
ENDBRANCH  18  19
ENDBRANCH  16  18
ENDBRANCH   2  15
BRANCH   5  26
ATOM     26  C   UNL     1     -44.334  -2.922 -31.769  0.00  0.00    +0.000 C 
BRANCH  26  27
ATOM     27  C   UNL     1     -44.988  -1.682 -31.179  0.00  0.00    +0.000 C 
BRANCH  27  29
ATOM     28  C   UNL     1     -43.293  -0.763 -32.755  0.00  0.00    +0.000 C 
ATOM     29  C   UNL     1     -44.493  -0.435 -31.888  0.00  0.00    +0.000 C 
ENDBRANCH  27  29
ENDBRANCH  26  27
ENDBRANCH   5  26
TORSDOF 8
ENDMDL
MODEL 3
REMARK VINA RESULT:      -5.3     12.024     16.148
REMARK  Name = ZINC000006509149 ZINC06509149 PubChem-7987030
REMARK  8 active torsions:
REMARK  status: ('A' for Active; 'I' for Inactive)
REMARK    1  A    between atoms: C_2  and  C_3
REMARK    2  A    between atoms: C_3  and  C_4
REMARK    3  A    between atoms: C_4  and  N_24
REMARK    4  A    between atoms: C_5  and  C_17
REMARK    5  A    between atoms: C_6  and  C_9
REMARK    6  A    between atoms: C_10  and  C_11
REMARK    7  A    between atoms: C_10  and  N_25
REMARK    8  A    between atoms: C_20  and  O_28
REMARK                            x       y       z     vdW  Elec       q    Type
REMARK                         _______ _______ _______ _____ _____    ______ ____
ROOT
ATOM      1  C   UNL     1     -45.094  -5.606 -30.512  0.00  0.00    +0.000 C 
ATOM      2  C   UNL     1     -46.315  -5.400 -31.428  0.00  0.00    +0.000 C 
ATOM      3  C   UNL     1     -47.318  -6.527 -31.146  0.00  0.00    +0.000 C 
ATOM      4  C   UNL     1     -46.605  -7.368 -30.163  0.00  0.00    +0.000 C 
ATOM      5  N   UNL     1     -45.342  -6.851 -29.803  0.00  0.00    +0.000 N 
ATOM      6  O   UNL     1     -47.079  -8.429 -29.678  0.00  0.00    +0.000 OA
ENDROOT
BRANCH   1   7
ATOM      7  C   UNL     1     -43.828  -5.679 -31.309  0.00  0.00    +0.000 A 
ATOM      8  C   UNL     1     -42.650  -5.062 -30.860  0.00  0.00    +0.000 A 
ATOM      9  C   UNL     1     -41.484  -5.140 -31.626  0.00  0.00    +0.000 A 
ATOM     10  C   UNL     1     -41.484  -5.834 -32.846  0.00  0.00    +0.000 A 
ATOM     11  C   UNL     1     -42.660  -6.447 -33.288  0.00  0.00    +0.000 A 
ATOM     12  C   UNL     1     -43.828  -6.370 -32.524  0.00  0.00    +0.000 A 
BRANCH  10  14
ATOM     13  C   UNL     1     -39.596  -4.793 -34.059  0.00  0.00    +0.000 C 
ATOM     14  O   UNL     1     -40.333  -5.931 -33.635  0.00  0.00    +0.000 OA
ENDBRANCH  10  14
ENDBRANCH   1   7
BRANCH   2  15
ATOM     15  C   UNL     1     -46.928  -4.043 -31.240  0.00  0.00    +0.000 C 
ATOM     16  N   UNL     1     -46.747  -2.977 -32.181  0.00  0.00    +0.000 NA
ATOM     17  O   UNL     1     -47.638  -3.841 -30.222  0.00  0.00    +0.000 OA
BRANCH  16  18
ATOM     18  C   UNL     1     -45.938  -3.089 -33.386  0.00  0.00    +0.000 C 
BRANCH  18  19
ATOM     19  C   UNL     1     -44.656  -2.359 -33.203  0.00  0.00    +0.000 A 
ATOM     20  C   UNL     1     -43.488  -2.837 -33.808  0.00  0.00    +0.000 A 
ATOM     21  C   UNL     1     -42.285  -2.142 -33.652  0.00  0.00    +0.000 A 
ATOM     22  C   UNL     1     -42.250  -0.966 -32.897  0.00  0.00    +0.000 A 
ATOM     23  C   UNL     1     -43.418  -0.483 -32.299  0.00  0.00    +0.000 A 
ATOM     24  C   UNL     1     -44.622  -1.178 -32.454  0.00  0.00    +0.000 A 
ATOM     25 CL   UNL     1     -40.744  -0.095 -32.702  0.00  0.00    +0.000 Cl
ENDBRANCH  18  19
ENDBRANCH  16  18
ENDBRANCH   2  15
BRANCH   5  26
ATOM     26  C   UNL     1     -44.479  -7.414 -28.774  0.00  0.00    +0.000 C 
BRANCH  26  27
ATOM     27  C   UNL     1     -44.375  -6.456 -27.597  0.00  0.00    +0.000 C 
BRANCH  27  29
ATOM     28  C   UNL     1     -46.508  -5.356 -26.931  0.00  0.00    +0.000 C 
ATOM     29  C   UNL     1     -45.610  -6.560 -26.722  0.00  0.00    +0.000 C 
ENDBRANCH  27  29
ENDBRANCH  26  27
ENDBRANCH   5  26
TORSDOF 8
ENDMDL
