MODEL 1
REMARK VINA RESULT:      -7.4      0.000      0.000
REMARK  Name = ZINC000020924363 ZINC20924363 PubChem-92705276
REMARK  4 active torsions:
REMARK  status: ('A' for Active; 'I' for Inactive)
REMARK    1  A    between atoms: C_5  and  C_8
REMARK    2  A    between atoms: C_12  and  C_13
REMARK    3  A    between atoms: C_16  and  O_24
REMARK    4  A    between atoms: C_17  and  O_23
REMARK                            x       y       z     vdW  Elec       q    Type
REMARK                         _______ _______ _______ _____ _____    ______ ____
ROOT
ATOM      1  C   UNL     1     -47.135  -4.079 -31.471  0.00  0.00    +0.000 C 
ATOM      2  C   UNL     1     -46.996  -5.454 -32.140  0.00  0.00    +0.000 C 
ATOM      3  C   UNL     1     -46.018  -6.312 -31.404  0.00  0.00    +0.000 C 
ATOM      4  C   UNL     1     -46.529  -5.078 -29.322  0.00  0.00    +0.000 C 
ATOM      5  C   UNL     1     -47.145  -4.061 -27.060  0.00  0.00    +0.000 C 
ATOM      6  O   UNL     1     -45.365  -7.195 -32.015  0.00  0.00    +0.000 OA
ATOM      7  O   UNL     1     -47.756  -3.086 -27.578  0.00  0.00    +0.000 OA
ATOM      8  N   UNL     1     -45.851  -6.140 -29.999  0.00  0.00    +0.000 NA
ATOM      9  N   UNL     1     -47.146  -4.156 -30.004  0.00  0.00    +0.000 NA
ATOM     10  N   UNL     1     -46.528  -5.056 -27.889  0.00  0.00    +0.000 NA
ENDROOT
BRANCH   1  15
ATOM     11  C   UNL     1     -43.106  -0.327 -33.255  0.00  0.00    +0.000 C 
ATOM     12  C   UNL     1     -44.140  -1.295 -32.804  0.00  0.00    +0.000 A 
ATOM     13  C   UNL     1     -44.588  -1.274 -31.480  0.00  0.00    +0.000 A 
ATOM     14  C   UNL     1     -45.560  -2.184 -31.055  0.00  0.00    +0.000 A 
ATOM     15  C   UNL     1     -46.087  -3.120 -31.951  0.00  0.00    +0.000 A 
ATOM     16  C   UNL     1     -45.637  -3.136 -33.281  0.00  0.00    +0.000 A 
ATOM     17  C   UNL     1     -44.666  -2.226 -33.705  0.00  0.00    +0.000 A 
ENDBRANCH   1  15
BRANCH   5  18
ATOM     18  C   UNL     1     -47.064  -4.177 -25.594  0.00  0.00    +0.000 A 
ATOM     19  C   UNL     1     -47.229  -3.049 -24.781  0.00  0.00    +0.000 A 
ATOM     20  C   UNL     1     -47.152  -3.162 -23.392  0.00  0.00    +0.000 A 
ATOM     21  C   UNL     1     -46.906  -4.409 -22.792  0.00  0.00    +0.000 A 
ATOM     22  C   UNL     1     -46.739  -5.544 -23.599  0.00  0.00    +0.000 A 
ATOM     23  C   UNL     1     -46.820  -5.420 -24.996  0.00  0.00    +0.000 A 
BRANCH  22  25
ATOM     24  C   UNL     1     -46.478  -8.003 -23.721  0.00  0.00    +0.000 C 
ATOM     25  O   UNL     1     -46.496  -6.782 -22.994  0.00  0.00    +0.000 OA
ENDBRANCH  22  25
BRANCH  21  27
ATOM     26  C   UNL     1     -46.965  -3.438 -20.515  0.00  0.00    +0.000 C 
ATOM     27  O   UNL     1     -46.825  -4.540 -21.401  0.00  0.00    +0.000 OA
ENDBRANCH  21  27
ENDBRANCH   5  18
TORSDOF 4
ENDMDL
MODEL 2
REMARK VINA RESULT:      -6.9      1.553      1.991
REMARK  Name = ZINC000020924363 ZINC20924363 PubChem-92705276
REMARK  4 active torsions:
REMARK  status: ('A' for Active; 'I' for Inactive)
REMARK    1  A    between atoms: C_5  and  C_8
REMARK    2  A    between atoms: C_12  and  C_13
REMARK    3  A    between atoms: C_16  and  O_24
REMARK    4  A    between atoms: C_17  and  O_23
REMARK                            x       y       z     vdW  Elec       q    Type
REMARK                         _______ _______ _______ _____ _____    ______ ____
ROOT
ATOM      1  C   UNL     1     -46.640  -2.983 -32.342  0.00  0.00    +0.000 C 
ATOM      2  C   UNL     1     -46.946  -3.992 -33.457  0.00  0.00    +0.000 C 
ATOM      3  C   UNL     1     -46.330  -5.321 -33.160  0.00  0.00    +0.000 C 
ATOM      4  C   UNL     1     -46.461  -4.823 -30.741  0.00  0.00    +0.000 C 
ATOM      5  C   UNL     1     -46.770  -4.546 -28.219  0.00  0.00    +0.000 C 
ATOM      6  O   UNL     1     -45.989  -6.085 -34.099  0.00  0.00    +0.000 OA
ATOM      7  O   UNL     1     -47.007  -3.310 -28.306  0.00  0.00    +0.000 OA
ATOM      8  N   UNL     1     -46.156  -5.728 -31.805  0.00  0.00    +0.000 NA
ATOM      9  N   UNL     1     -46.718  -3.573 -30.998  0.00  0.00    +0.000 NA
ATOM     10  N   UNL     1     -46.495  -5.318 -29.397  0.00  0.00    +0.000 NA
ENDROOT
BRANCH   1  15
ATOM     11  C   UNL     1     -41.575  -0.292 -33.124  0.00  0.00    +0.000 C 
ATOM     12  C   UNL     1     -42.873  -0.989 -32.928  0.00  0.00    +0.000 A 
ATOM     13  C   UNL     1     -43.780  -0.525 -31.970  0.00  0.00    +0.000 A 
ATOM     14  C   UNL     1     -45.001  -1.180 -31.785  0.00  0.00    +0.000 A 
ATOM     15  C   UNL     1     -45.320  -2.304 -32.555  0.00  0.00    +0.000 A 
ATOM     16  C   UNL     1     -44.408  -2.766 -33.517  0.00  0.00    +0.000 A 
ATOM     17  C   UNL     1     -43.189  -2.110 -33.702  0.00  0.00    +0.000 A 
ENDBRANCH   1  15
BRANCH   5  18
ATOM     18  C   UNL     1     -46.774  -5.200 -26.899  0.00  0.00    +0.000 A 
ATOM     19  C   UNL     1     -47.206  -4.506 -25.763  0.00  0.00    +0.000 A 
ATOM     20  C   UNL     1     -47.209  -5.128 -24.514  0.00  0.00    +0.000 A 
ATOM     21  C   UNL     1     -46.778  -6.459 -24.380  0.00  0.00    +0.000 A 
ATOM     22  C   UNL     1     -46.343  -7.162 -25.514  0.00  0.00    +0.000 A 
ATOM     23  C   UNL     1     -46.344  -6.527 -26.767  0.00  0.00    +0.000 A 
BRANCH  22  25
ATOM     24  C   UNL     1     -44.543  -8.855 -25.364  0.00  0.00    +0.000 C 
ATOM     25  O   UNL     1     -45.915  -8.487 -25.374  0.00  0.00    +0.000 OA
ENDBRANCH  22  25
BRANCH  21  27
ATOM     26  C   UNL     1     -47.178  -6.451 -21.937  0.00  0.00    +0.000 C 
ATOM     27  O   UNL     1     -46.773  -7.098 -23.136  0.00  0.00    +0.000 OA
ENDBRANCH  21  27
ENDBRANCH   5  18
TORSDOF 4
ENDMDL
MODEL 3
REMARK VINA RESULT:      -6.6      3.669      4.602
REMARK  Name = ZINC000020924363 ZINC20924363 PubChem-92705276
REMARK  4 active torsions:
REMARK  status: ('A' for Active; 'I' for Inactive)
REMARK    1  A    between atoms: C_5  and  C_8
REMARK    2  A    between atoms: C_12  and  C_13
REMARK    3  A    between atoms: C_16  and  O_24
REMARK    4  A    between atoms: C_17  and  O_23
REMARK                            x       y       z     vdW  Elec       q    Type
REMARK                         _______ _______ _______ _____ _____    ______ ____
ROOT
ATOM      1  C   UNL     1     -47.246  -4.100 -32.760  0.00  0.00    +0.000 C 
ATOM      2  C   UNL     1     -47.350  -4.678 -34.178  0.00  0.00    +0.000 C 
ATOM      3  C   UNL     1     -46.460  -5.867 -34.339  0.00  0.00    +0.000 C 
ATOM      4  C   UNL     1     -46.650  -6.316 -31.914  0.00  0.00    +0.000 C 
ATOM      5  C   UNL     1     -46.965  -7.038 -29.482  0.00  0.00    +0.000 C 
ATOM      6  O   UNL     1     -45.982  -6.154 -35.466  0.00  0.00    +0.000 OA
ATOM      7  O   UNL     1     -47.461  -5.932 -29.137  0.00  0.00    +0.000 OA
ATOM      8  N   UNL     1     -46.178  -6.692 -33.210  0.00  0.00    +0.000 NA
ATOM      9  N   UNL     1     -47.172  -5.138 -31.723  0.00  0.00    +0.000 NA
ATOM     10  N   UNL     1     -46.553  -7.259 -30.839  0.00  0.00    +0.000 NA
ENDROOT
BRANCH   1  15
ATOM     11  C   UNL     1     -42.811  -0.402 -32.364  0.00  0.00    +0.000 C 
ATOM     12  C   UNL     1     -43.952  -1.350 -32.458  0.00  0.00    +0.000 A 
ATOM     13  C   UNL     1     -44.315  -1.889 -33.696  0.00  0.00    +0.000 A 
ATOM     14  C   UNL     1     -45.387  -2.780 -33.785  0.00  0.00    +0.000 A 
ATOM     15  C   UNL     1     -46.104  -3.135 -32.637  0.00  0.00    +0.000 A 
ATOM     16  C   UNL     1     -45.735  -2.595 -31.395  0.00  0.00    +0.000 A 
ATOM     17  C   UNL     1     -44.663  -1.705 -31.307  0.00  0.00    +0.000 A 
ENDBRANCH   1  15
BRANCH   5  18
ATOM     18  C   UNL     1     -46.805  -8.111 -28.485  0.00  0.00    +0.000 A 
ATOM     19  C   UNL     1     -46.904  -7.831 -27.117  0.00  0.00    +0.000 A 
ATOM     20  C   UNL     1     -46.753  -8.849 -26.175  0.00  0.00    +0.000 A 
ATOM     21  C   UNL     1     -46.498 -10.168 -26.587  0.00  0.00    +0.000 A 
ATOM     22  C   UNL     1     -46.397 -10.458 -27.956  0.00  0.00    +0.000 A 
ATOM     23  C   UNL     1     -46.552  -9.426 -28.897  0.00  0.00    +0.000 A 
BRANCH  22  25
ATOM     24  C   UNL     1     -47.147 -12.616 -28.910  0.00  0.00    +0.000 C 
ATOM     25  O   UNL     1     -46.144 -11.773 -28.359  0.00  0.00    +0.000 OA
ENDBRANCH  22  25
BRANCH  21  27
ATOM     26  C   UNL     1     -45.520 -11.081 -24.503  0.00  0.00    +0.000 C 
ATOM     27  O   UNL     1     -46.343 -11.201 -25.656  0.00  0.00    +0.000 OA
ENDBRANCH  21  27
ENDBRANCH   5  18
TORSDOF 4
ENDMDL
