MODEL 1
REMARK VINA RESULT:      -6.0      0.000      0.000
REMARK  Name = ZINC000096181878 ZINC96181878 PubChem-97457708
REMARK  5 active torsions:
REMARK  status: ('A' for Active; 'I' for Inactive)
REMARK    1  A    between atoms: C_2  and  C_3
REMARK    2  A    between atoms: C_3  and  C_4
REMARK    3  A    between atoms: C_4  and  N_18
REMARK    4  A    between atoms: C_5  and  C_6
REMARK    5  A    between atoms: C_10  and  C_11
REMARK                            x       y       z     vdW  Elec       q    Type
REMARK                         _______ _______ _______ _____ _____    ______ ____
ROOT
ATOM      1  C   UNL     1     -46.042 -18.105 -20.283  0.00  0.00    +0.000 C 
ATOM      2  C   UNL     1     -46.446 -19.452 -19.681  0.00  0.00    +0.000 C 
ATOM      3  C   UNL     1     -45.443 -19.930 -18.638  0.00  0.00    +0.000 C 
ATOM      4  C   UNL     1     -44.044 -19.871 -19.162  0.00  0.00    +0.000 C 
ATOM      5  C   UNL     1     -44.650 -18.152 -20.932  0.00  0.00    +0.000 C 
ATOM      6  C   UNL     1     -42.249 -18.615 -20.371  0.00  0.00    +0.000 C 
ATOM      7  N   UNL     1     -43.660 -18.866 -20.116  0.00  0.00    +0.000 N 
ATOM      8  O   UNL     1     -43.191 -20.685 -18.717  0.00  0.00    +0.000 OA
ENDROOT
BRANCH   5   9
ATOM      9  C   UNL     1     -44.706 -18.711 -22.323  0.00  0.00    +0.000 A 
ATOM     10  C   UNL     1     -45.707 -18.320 -23.225  0.00  0.00    +0.000 A 
ATOM     11  C   UNL     1     -45.744 -18.863 -24.513  0.00  0.00    +0.000 A 
ATOM     12  C   UNL     1     -44.782 -19.799 -24.903  0.00  0.00    +0.000 A 
ATOM     13  C   UNL     1     -43.786 -20.194 -24.006  0.00  0.00    +0.000 A 
ATOM     14  C   UNL     1     -43.749 -19.652 -22.719  0.00  0.00    +0.000 A 
ATOM     15  F   UNL     1     -44.817 -20.325 -26.151  0.00  0.00    +0.000 F 
ENDBRANCH   5   9
BRANCH   1  16
ATOM     16  C   UNL     1     -46.171 -16.980 -19.304  0.00  0.00    +0.000 C 
ATOM     17  N   UNL     1     -45.081 -16.081 -19.083  0.00  0.00    +0.000 NA
ATOM     18  O   UNL     1     -47.247 -16.847 -18.661  0.00  0.00    +0.000 OA
BRANCH  17  19
ATOM     19  C   UNL     1     -45.167 -14.985 -18.134  0.00  0.00    +0.000 C 
BRANCH  19  20
ATOM     20  C   UNL     1     -45.525 -13.709 -18.871  0.00  0.00    +0.000 C 
BRANCH  20  22
ATOM     21  C   UNL     1     -47.701 -13.383 -20.045  0.00  0.00    +0.000 C 
ATOM     22  C   UNL     1     -47.001 -13.394 -18.698  0.00  0.00    +0.000 C 
ENDBRANCH  20  22
ENDBRANCH  19  20
ENDBRANCH  17  19
ENDBRANCH   1  16
TORSDOF 5
ENDMDL
MODEL 2
REMARK VINA RESULT:      -5.9      4.120      5.594
REMARK  Name = ZINC000096181878 ZINC96181878 PubChem-97457708
REMARK  5 active torsions:
REMARK  status: ('A' for Active; 'I' for Inactive)
REMARK    1  A    between atoms: C_2  and  C_3
REMARK    2  A    between atoms: C_3  and  C_4
REMARK    3  A    between atoms: C_4  and  N_18
REMARK    4  A    between atoms: C_5  and  C_6
REMARK    5  A    between atoms: C_10  and  C_11
REMARK                            x       y       z     vdW  Elec       q    Type
REMARK                         _______ _______ _______ _____ _____    ______ ____
ROOT
ATOM      1  C   UNL     1     -45.368 -17.385 -24.092  0.00  0.00    +0.000 C 
ATOM      2  C   UNL     1     -46.136 -18.482 -24.831  0.00  0.00    +0.000 C 
ATOM      3  C   UNL     1     -45.212 -19.597 -25.309  0.00  0.00    +0.000 C 
ATOM      4  C   UNL     1     -44.035 -19.047 -26.048  0.00  0.00    +0.000 C 
ATOM      5  C   UNL     1     -44.262 -16.763 -24.959  0.00  0.00    +0.000 C 
ATOM      6  C   UNL     1     -42.171 -17.383 -26.197  0.00  0.00    +0.000 C 
ATOM      7  N   UNL     1     -43.487 -17.762 -25.705  0.00  0.00    +0.000 N 
ATOM      8  O   UNL     1     -43.495 -19.749 -26.945  0.00  0.00    +0.000 OA
ENDROOT
BRANCH   5   9
ATOM      9  C   UNL     1     -44.807 -15.707 -25.876  0.00  0.00    +0.000 A 
ATOM     10  C   UNL     1     -44.415 -15.637 -27.221  0.00  0.00    +0.000 A 
ATOM     11  C   UNL     1     -44.929 -14.638 -28.051  0.00  0.00    +0.000 A 
ATOM     12  C   UNL     1     -45.835 -13.703 -27.541  0.00  0.00    +0.000 A 
ATOM     13  C   UNL     1     -46.225 -13.768 -26.200  0.00  0.00    +0.000 A 
ATOM     14  C   UNL     1     -45.711 -14.767 -25.370  0.00  0.00    +0.000 A 
ATOM     15  F   UNL     1     -46.335 -12.735 -28.346  0.00  0.00    +0.000 F 
ENDBRANCH   5   9
BRANCH   1  16
ATOM     16  C   UNL     1     -44.852 -17.845 -22.763  0.00  0.00    +0.000 C 
ATOM     17  N   UNL     1     -45.738 -18.426 -21.803  0.00  0.00    +0.000 NA
ATOM     18  O   UNL     1     -43.631 -17.694 -22.493  0.00  0.00    +0.000 OA
BRANCH  17  19
ATOM     19  C   UNL     1     -45.276 -18.874 -20.501  0.00  0.00    +0.000 C 
BRANCH  19  20
ATOM     20  C   UNL     1     -46.223 -18.368 -19.430  0.00  0.00    +0.000 C 
BRANCH  20  22
ATOM     21  C   UNL     1     -47.381 -16.334 -18.571  0.00  0.00    +0.000 C 
ATOM     22  C   UNL     1     -46.207 -16.850 -19.382  0.00  0.00    +0.000 C 
ENDBRANCH  20  22
ENDBRANCH  19  20
ENDBRANCH  17  19
ENDBRANCH   1  16
TORSDOF 5
ENDMDL
MODEL 3
REMARK VINA RESULT:      -5.7     15.885     17.998
REMARK  Name = ZINC000096181878 ZINC96181878 PubChem-97457708
REMARK  5 active torsions:
REMARK  status: ('A' for Active; 'I' for Inactive)
REMARK    1  A    between atoms: C_2  and  C_3
REMARK    2  A    between atoms: C_3  and  C_4
REMARK    3  A    between atoms: C_4  and  N_18
REMARK    4  A    between atoms: C_5  and  C_6
REMARK    5  A    between atoms: C_10  and  C_11
REMARK                            x       y       z     vdW  Elec       q    Type
REMARK                         _______ _______ _______ _____ _____    ______ ____
ROOT
ATOM      1  C   UNL     1     -45.203  -4.153 -30.755  0.00  0.00    +0.000 C 
ATOM      2  C   UNL     1     -46.549  -3.517 -31.109  0.00  0.00    +0.000 C 
ATOM      3  C   UNL     1     -47.341  -4.375 -32.088  0.00  0.00    +0.000 C 
ATOM      4  C   UNL     1     -46.505  -4.772 -33.262  0.00  0.00    +0.000 C 
ATOM      5  C   UNL     1     -44.333  -4.404 -31.996  0.00  0.00    +0.000 C 
ATOM      6  C   UNL     1     -44.347  -5.657 -34.169  0.00  0.00    +0.000 C 
ATOM      7  N   UNL     1     -45.088  -4.971 -33.121  0.00  0.00    +0.000 N 
ATOM      8  O   UNL     1     -47.069  -4.978 -34.371  0.00  0.00    +0.000 OA
ENDROOT
BRANCH   5   9
ATOM      9  C   UNL     1     -43.593  -3.166 -32.412  0.00  0.00    +0.000 A 
ATOM     10  C   UNL     1     -44.276  -2.015 -32.832  0.00  0.00    +0.000 A 
ATOM     11  C   UNL     1     -43.562  -0.878 -33.224  0.00  0.00    +0.000 A 
ATOM     12  C   UNL     1     -42.165  -0.889 -33.200  0.00  0.00    +0.000 A 
ATOM     13  C   UNL     1     -41.481  -2.035 -32.785  0.00  0.00    +0.000 A 
ATOM     14  C   UNL     1     -42.194  -3.171 -32.394  0.00  0.00    +0.000 A 
ATOM     15  F   UNL     1     -41.473   0.213 -33.578  0.00  0.00    +0.000 F 
ENDBRANCH   5   9
BRANCH   1  16
ATOM     16  C   UNL     1     -45.356  -5.383 -29.914  0.00  0.00    +0.000 C 
ATOM     17  N   UNL     1     -46.329  -5.430 -28.868  0.00  0.00    +0.000 NA
ATOM     18  O   UNL     1     -44.601  -6.369 -30.128  0.00  0.00    +0.000 OA
BRANCH  17  19
ATOM     19  C   UNL     1     -46.499  -6.601 -28.026  0.00  0.00    +0.000 C 
BRANCH  19  20
ATOM     20  C   UNL     1     -46.317  -6.207 -26.573  0.00  0.00    +0.000 C 
BRANCH  20  22
ATOM     21  C   UNL     1     -47.128  -4.650 -24.802  0.00  0.00    +0.000 C 
ATOM     22  C   UNL     1     -46.991  -4.874 -26.297  0.00  0.00    +0.000 C 
ENDBRANCH  20  22
ENDBRANCH  19  20
ENDBRANCH  17  19
ENDBRANCH   1  16
TORSDOF 5
ENDMDL
