MODEL 1
REMARK VINA RESULT:      -5.8      0.000      0.000
REMARK  Name = ZINC000181041974 MolPort-044-576-750 PubChem-132290894
REMARK  3 active torsions:
REMARK  status: ('A' for Active; 'I' for Inactive)
REMARK    1  A    between atoms: C_9  and  C_10
REMARK    2  A    between atoms: C_10  and  O_23
REMARK    3  A    between atoms: C_11  and  O_23
REMARK                            x       y       z     vdW  Elec       q    Type
REMARK                         _______ _______ _______ _____ _____    ______ ____
ROOT
ATOM      1  C   UNL     1     -45.036 -19.302 -19.038  0.00  0.00    +0.000 C 
ATOM      2  C   UNL     1     -45.304 -18.083 -19.851  0.00  0.00    +0.000 A 
ATOM      3  C   UNL     1     -45.059 -18.062 -21.231  0.00  0.00    +0.000 A 
ATOM      4  C   UNL     1     -45.334 -16.893 -21.963  0.00  0.00    +0.000 A 
ATOM      5  C   UNL     1     -46.056 -15.797 -19.977  0.00  0.00    +0.000 A 
ATOM      6  C   UNL     1     -45.803 -16.943 -19.221  0.00  0.00    +0.000 A 
ATOM      7  C   UNL     1     -44.157 -17.825 -23.985  0.00  0.00    +0.000 C 
ATOM      8  C   UNL     1     -44.192 -19.148 -23.285  0.00  0.00    +0.000 C 
ATOM      9  C   UNL     1     -45.702 -15.874 -24.243  0.00  0.00    +0.000 C 
ATOM     10  N   UNL     1     -45.821 -15.797 -21.315  0.00  0.00    +0.000 NA
ATOM     11  N   UNL     1     -45.102 -16.871 -23.390  0.00  0.00    +0.000 N 
ATOM     12  N   UNL     1     -44.557 -19.217 -21.906  0.00  0.00    +0.000 NA
ATOM     13  O   UNL     1     -43.838 -20.190 -23.893  0.00  0.00    +0.000 OA
ATOM     14  O   UNL     1     -46.631 -15.137 -23.816  0.00  0.00    +0.000 OA
ENDROOT
BRANCH   9  15
ATOM     15  C   UNL     1     -45.287 -15.732 -25.670  0.00  0.00    +0.000 C 
BRANCH  15  16
ATOM     16  O   UNL     1     -44.870 -14.395 -25.912  0.00  0.00    +0.000 OA
BRANCH  16  17
ATOM     17  C   UNL     1     -45.546 -13.536 -26.786  0.00  0.00    +0.000 A 
ATOM     18  C   UNL     1     -45.783 -13.904 -28.121  0.00  0.00    +0.000 A 
ATOM     19  C   UNL     1     -46.459 -13.040 -28.984  0.00  0.00    +0.000 A 
ATOM     20  C   UNL     1     -46.903 -11.801 -28.523  0.00  0.00    +0.000 A 
ATOM     21  C   UNL     1     -46.676 -11.418 -27.198  0.00  0.00    +0.000 A 
ATOM     22  C   UNL     1     -45.995 -12.286 -26.324  0.00  0.00    +0.000 A 
ATOM     23  C   UNL     1     -45.748 -11.890 -24.905  0.00  0.00    +0.000 C 
ATOM     24 CL   UNL     1     -47.257  -9.847 -26.669  0.00  0.00    +0.000 Cl
ENDBRANCH  16  17
ENDBRANCH  15  16
ENDBRANCH   9  15
TORSDOF 3
ENDMDL
MODEL 2
REMARK VINA RESULT:      -5.5      2.822      4.507
REMARK  Name = ZINC000181041974 MolPort-044-576-750 PubChem-132290894
REMARK  3 active torsions:
REMARK  status: ('A' for Active; 'I' for Inactive)
REMARK    1  A    between atoms: C_9  and  C_10
REMARK    2  A    between atoms: C_10  and  O_23
REMARK    3  A    between atoms: C_11  and  O_23
REMARK                            x       y       z     vdW  Elec       q    Type
REMARK                         _______ _______ _______ _____ _____    ______ ____
ROOT
ATOM      1  C   UNL     1     -41.951 -18.526 -18.395  0.00  0.00    +0.000 C 
ATOM      2  C   UNL     1     -42.149 -19.252 -19.681  0.00  0.00    +0.000 A 
ATOM      3  C   UNL     1     -43.171 -18.890 -20.570  0.00  0.00    +0.000 A 
ATOM      4  C   UNL     1     -43.318 -19.596 -21.777  0.00  0.00    +0.000 A 
ATOM      5  C   UNL     1     -41.482 -20.998 -21.201  0.00  0.00    +0.000 A 
ATOM      6  C   UNL     1     -41.302 -20.314 -19.998  0.00  0.00    +0.000 A 
ATOM      7  C   UNL     1     -45.527 -18.472 -22.221  0.00  0.00    +0.000 C 
ATOM      8  C   UNL     1     -45.162 -17.520 -21.125  0.00  0.00    +0.000 C 
ATOM      9  C   UNL     1     -44.328 -19.625 -24.090  0.00  0.00    +0.000 C 
ATOM     10  N   UNL     1     -42.473 -20.629 -22.055  0.00  0.00    +0.000 NA
ATOM     11  N   UNL     1     -44.357 -19.216 -22.707  0.00  0.00    +0.000 N 
ATOM     12  N   UNL     1     -44.048 -17.801 -20.276  0.00  0.00    +0.000 NA
ATOM     13  O   UNL     1     -45.874 -16.506 -20.911  0.00  0.00    +0.000 OA
ATOM     14  O   UNL     1     -43.285 -20.124 -24.592  0.00  0.00    +0.000 OA
ENDROOT
BRANCH   9  15
ATOM     15  C   UNL     1     -45.506 -19.409 -24.981  0.00  0.00    +0.000 C 
BRANCH  15  16
ATOM     16  O   UNL     1     -45.165 -18.480 -26.002  0.00  0.00    +0.000 OA
BRANCH  16  17
ATOM     17  C   UNL     1     -45.057 -17.104 -25.770  0.00  0.00    +0.000 A 
ATOM     18  C   UNL     1     -46.048 -16.411 -25.056  0.00  0.00    +0.000 A 
ATOM     19  C   UNL     1     -45.929 -15.038 -24.830  0.00  0.00    +0.000 A 
ATOM     20  C   UNL     1     -44.820 -14.346 -25.317  0.00  0.00    +0.000 A 
ATOM     21  C   UNL     1     -43.824 -15.019 -26.029  0.00  0.00    +0.000 A 
ATOM     22  C   UNL     1     -43.940 -16.404 -26.259  0.00  0.00    +0.000 A 
ATOM     23  C   UNL     1     -42.881 -17.135 -27.018  0.00  0.00    +0.000 C 
ATOM     24 CL   UNL     1     -42.449 -14.099 -26.619  0.00  0.00    +0.000 Cl
ENDBRANCH  16  17
ENDBRANCH  15  16
ENDBRANCH   9  15
TORSDOF 3
ENDMDL
MODEL 3
REMARK VINA RESULT:      -5.4      2.827      3.658
REMARK  Name = ZINC000181041974 MolPort-044-576-750 PubChem-132290894
REMARK  3 active torsions:
REMARK  status: ('A' for Active; 'I' for Inactive)
REMARK    1  A    between atoms: C_9  and  C_10
REMARK    2  A    between atoms: C_10  and  O_23
REMARK    3  A    between atoms: C_11  and  O_23
REMARK                            x       y       z     vdW  Elec       q    Type
REMARK                         _______ _______ _______ _____ _____    ______ ____
ROOT
ATOM      1  C   UNL     1     -43.395 -19.645 -18.245  0.00  0.00    +0.000 C 
ATOM      2  C   UNL     1     -44.134 -19.136 -19.435  0.00  0.00    +0.000 A 
ATOM      3  C   UNL     1     -43.742 -19.480 -20.736  0.00  0.00    +0.000 A 
ATOM      4  C   UNL     1     -44.473 -18.985 -21.831  0.00  0.00    +0.000 A 
ATOM      5  C   UNL     1     -45.929 -17.816 -20.353  0.00  0.00    +0.000 A 
ATOM      6  C   UNL     1     -45.232 -18.297 -19.243  0.00  0.00    +0.000 A 
ATOM      7  C   UNL     1     -42.712 -19.799 -23.436  0.00  0.00    +0.000 C 
ATOM      8  C   UNL     1     -42.159 -20.589 -22.290  0.00  0.00    +0.000 C 
ATOM      9  C   UNL     1     -44.986 -19.203 -24.293  0.00  0.00    +0.000 C 
ATOM     10  N   UNL     1     -45.540 -18.166 -21.607  0.00  0.00    +0.000 NA
ATOM     11  N   UNL     1     -44.086 -19.352 -23.174  0.00  0.00    +0.000 N 
ATOM     12  N   UNL     1     -42.627 -20.345 -20.963  0.00  0.00    +0.000 NA
ATOM     13  O   UNL     1     -41.238 -21.421 -22.487  0.00  0.00    +0.000 OA
ATOM     14  O   UNL     1     -46.212 -18.975 -24.106  0.00  0.00    +0.000 OA
ENDROOT
BRANCH   9  15
ATOM     15  C   UNL     1     -44.506 -19.381 -25.694  0.00  0.00    +0.000 C 
BRANCH  15  16
ATOM     16  O   UNL     1     -44.784 -18.206 -26.444  0.00  0.00    +0.000 OA
BRANCH  16  17
ATOM     17  C   UNL     1     -43.810 -17.246 -26.740  0.00  0.00    +0.000 A 
ATOM     18  C   UNL     1     -42.564 -17.621 -27.273  0.00  0.00    +0.000 A 
ATOM     19  C   UNL     1     -41.600 -16.655 -27.565  0.00  0.00    +0.000 A 
ATOM     20  C   UNL     1     -41.869 -15.307 -27.328  0.00  0.00    +0.000 A 
ATOM     21  C   UNL     1     -43.102 -14.916 -26.799  0.00  0.00    +0.000 A 
ATOM     22  C   UNL     1     -44.078 -15.886 -26.502  0.00  0.00    +0.000 A 
ATOM     23  C   UNL     1     -45.401 -15.481 -25.938  0.00  0.00    +0.000 C 
ATOM     24 CL   UNL     1     -43.389 -13.205 -26.520  0.00  0.00    +0.000 Cl
ENDBRANCH  16  17
ENDBRANCH  15  16
ENDBRANCH   9  15
TORSDOF 3
ENDMDL
