MODEL 1
REMARK VINA RESULT:      -5.6      0.000      0.000
REMARK  Name = ZINC000035340400 PubChem-2311905
REMARK  8 active torsions:
REMARK  status: ('A' for Active; 'I' for Inactive)
REMARK    1  A    between atoms: C_2  and  O_24
REMARK    2  A    between atoms: C_3  and  O_27
REMARK    3  A    between atoms: C_5  and  C_8
REMARK    4  A    between atoms: C_9  and  C_10
REMARK    5  A    between atoms: C_11  and  C_12
REMARK    6  A    between atoms: C_11  and  N_28
REMARK    7  A    between atoms: C_12  and  C_13
REMARK    8  A    between atoms: C_12  and  N_29
REMARK                            x       y       z     vdW  Elec       q    Type
REMARK                         _______ _______ _______ _____ _____    ______ ____
ROOT
ATOM      1  C   UNL     1     -45.947 -14.375 -23.167  0.00  0.00    +0.000 C 
ENDROOT
BRANCH   1   4
ATOM      2  C   UNL     1     -46.419 -14.180 -20.685  0.00  0.00    +0.000 C 
ATOM      3  O   UNL     1     -45.562 -13.264 -20.568  0.00  0.00    +0.000 OA
ATOM      4  N   UNL     1     -46.662 -14.774 -21.963  0.00  0.00    +0.000 NA
BRANCH   2   6
ATOM      5  C   UNL     1     -47.188 -15.725 -18.850  0.00  0.00    +0.000 C 
ATOM      6  C   UNL     1     -47.215 -14.558 -19.507  0.00  0.00    +0.000 C 
BRANCH   5  10
ATOM      7  C   UNL     1     -44.384 -18.893 -19.552  0.00  0.00    +0.000 A 
ATOM      8  C   UNL     1     -43.947 -17.631 -19.074  0.00  0.00    +0.000 A 
ATOM      9  C   UNL     1     -44.890 -16.625 -18.841  0.00  0.00    +0.000 A 
ATOM     10  C   UNL     1     -46.253 -16.844 -19.050  0.00  0.00    +0.000 A 
ATOM     11  C   UNL     1     -46.678 -18.079 -19.552  0.00  0.00    +0.000 A 
ATOM     12  C   UNL     1     -45.754 -19.096 -19.791  0.00  0.00    +0.000 A 
BRANCH   7  14
ATOM     13  C   UNL     1     -42.605 -19.950 -20.917  0.00  0.00    +0.000 C 
ATOM     14  O   UNL     1     -43.469 -19.924 -19.788  0.00  0.00    +0.000 OA
ENDBRANCH   7  14
BRANCH   8  16
ATOM     15  C   UNL     1     -41.790 -16.493 -19.641  0.00  0.00    +0.000 C 
ATOM     16  O   UNL     1     -42.603 -17.318 -18.818  0.00  0.00    +0.000 OA
ENDBRANCH   8  16
ENDBRANCH   5  10
ENDBRANCH   2   6
ENDBRANCH   1   4
BRANCH   1  17
ATOM     17  C   UNL     1     -44.639 -15.153 -23.292  0.00  0.00    +0.000 C 
BRANCH  17  18
ATOM     18  C   UNL     1     -44.849 -16.526 -23.882  0.00  0.00    +0.000 A 
ATOM     19  C   UNL     1     -45.028 -17.611 -23.017  0.00  0.00    +0.000 A 
ATOM     20  C   UNL     1     -45.241 -18.894 -23.529  0.00  0.00    +0.000 A 
ATOM     21  C   UNL     1     -45.283 -19.097 -24.911  0.00  0.00    +0.000 A 
ATOM     22  C   UNL     1     -45.117 -18.017 -25.781  0.00  0.00    +0.000 A 
ATOM     23  C   UNL     1     -44.903 -16.734 -25.270  0.00  0.00    +0.000 A 
ATOM     24  F   UNL     1     -45.490 -20.341 -25.406  0.00  0.00    +0.000 F 
ENDBRANCH  17  18
BRANCH  17  30
ATOM     25  C   UNL     1     -42.535 -13.953 -22.993  0.00  0.00    +0.000 C 
ATOM     26  C   UNL     1     -41.539 -13.027 -23.692  0.00  0.00    +0.000 C 
ATOM     27  C   UNL     1     -43.092 -12.287 -25.161  0.00  0.00    +0.000 C 
ATOM     28  C   UNL     1     -44.190 -13.165 -24.557  0.00  0.00    +0.000 C 
ATOM     29  O   UNL     1     -42.205 -11.874 -24.150  0.00  0.00    +0.000 OA
ATOM     30  N   UNL     1     -43.586 -14.352 -23.941  0.00  0.00    +0.000 NA
ENDBRANCH  17  30
ENDBRANCH   1  17
TORSDOF 8
ENDMDL
MODEL 2
REMARK VINA RESULT:      -5.5     13.778     16.956
REMARK  Name = ZINC000035340400 PubChem-2311905
REMARK  8 active torsions:
REMARK  status: ('A' for Active; 'I' for Inactive)
REMARK    1  A    between atoms: C_2  and  O_24
REMARK    2  A    between atoms: C_3  and  O_27
REMARK    3  A    between atoms: C_5  and  C_8
REMARK    4  A    between atoms: C_9  and  C_10
REMARK    5  A    between atoms: C_11  and  C_12
REMARK    6  A    between atoms: C_11  and  N_28
REMARK    7  A    between atoms: C_12  and  C_13
REMARK    8  A    between atoms: C_12  and  N_29
REMARK                            x       y       z     vdW  Elec       q    Type
REMARK                         _______ _______ _______ _____ _____    ______ ____
ROOT
ATOM      1  C   UNL     1     -40.507  -3.497 -32.983  0.00  0.00    +0.000 C 
ENDROOT
BRANCH   1   4
ATOM      2  C   UNL     1     -41.789  -1.328 -32.710  0.00  0.00    +0.000 C 
ATOM      3  O   UNL     1     -41.093  -1.013 -31.707  0.00  0.00    +0.000 OA
ATOM      4  N   UNL     1     -41.540  -2.558 -33.396  0.00  0.00    +0.000 NA
BRANCH   2   6
ATOM      5  C   UNL     1     -44.120  -0.538 -33.248  0.00  0.00    +0.000 C 
ATOM      6  C   UNL     1     -42.791  -0.371 -33.203  0.00  0.00    +0.000 C 
BRANCH   5  10
ATOM      7  C   UNL     1     -46.537  -3.707 -31.667  0.00  0.00    +0.000 A 
ATOM      8  C   UNL     1     -46.326  -3.586 -33.064  0.00  0.00    +0.000 A 
ATOM      9  C   UNL     1     -45.519  -2.550 -33.545  0.00  0.00    +0.000 A 
ATOM     10  C   UNL     1     -44.903  -1.646 -32.676  0.00  0.00    +0.000 A 
ATOM     11  C   UNL     1     -45.139  -1.749 -31.302  0.00  0.00    +0.000 A 
ATOM     12  C   UNL     1     -45.940  -2.775 -30.801  0.00  0.00    +0.000 A 
BRANCH   7  14
ATOM     13  C   UNL     1     -47.348  -5.086 -29.773  0.00  0.00    +0.000 C 
ATOM     14  O   UNL     1     -47.332  -4.737 -31.151  0.00  0.00    +0.000 OA
ENDBRANCH   7  14
BRANCH   8  16
ATOM     15  C   UNL     1     -46.377  -5.735 -34.346  0.00  0.00    +0.000 C 
ATOM     16  O   UNL     1     -46.887  -4.451 -34.015  0.00  0.00    +0.000 OA
ENDBRANCH   8  16
ENDBRANCH   5  10
ENDBRANCH   2   6
ENDBRANCH   1   4
BRANCH   1  17
ATOM     17  C   UNL     1     -41.011  -4.933 -33.111  0.00  0.00    +0.000 C 
BRANCH  17  18
ATOM     18  C   UNL     1     -41.702  -5.405 -31.855  0.00  0.00    +0.000 A 
ATOM     19  C   UNL     1     -41.054  -6.341 -31.040  0.00  0.00    +0.000 A 
ATOM     20  C   UNL     1     -41.658  -6.787 -29.862  0.00  0.00    +0.000 A 
ATOM     21  C   UNL     1     -42.912  -6.296 -29.488  0.00  0.00    +0.000 A 
ATOM     22  C   UNL     1     -43.559  -5.354 -30.291  0.00  0.00    +0.000 A 
ATOM     23  C   UNL     1     -42.957  -4.907 -31.470  0.00  0.00    +0.000 A 
ATOM     24  F   UNL     1     -43.496  -6.730 -28.345  0.00  0.00    +0.000 F 
ENDBRANCH  17  18
BRANCH  17  30
ATOM     25  C   UNL     1     -42.345  -6.489 -34.434  0.00  0.00    +0.000 C 
ATOM     26  C   UNL     1     -43.019  -6.681 -35.794  0.00  0.00    +0.000 C 
ATOM     27  C   UNL     1     -41.663  -5.177 -36.801  0.00  0.00    +0.000 C 
ATOM     28  C   UNL     1     -40.900  -4.887 -35.506  0.00  0.00    +0.000 C 
ATOM     29  O   UNL     1     -42.070  -6.523 -36.820  0.00  0.00    +0.000 OA
ATOM     30  N   UNL     1     -41.774  -5.137 -34.355  0.00  0.00    +0.000 NA
ENDBRANCH  17  30
ENDBRANCH   1  17
TORSDOF 8
ENDMDL
MODEL 3
REMARK VINA RESULT:      -5.5      2.748      4.938
REMARK  Name = ZINC000035340400 PubChem-2311905
REMARK  8 active torsions:
REMARK  status: ('A' for Active; 'I' for Inactive)
REMARK    1  A    between atoms: C_2  and  O_24
REMARK    2  A    between atoms: C_3  and  O_27
REMARK    3  A    between atoms: C_5  and  C_8
REMARK    4  A    between atoms: C_9  and  C_10
REMARK    5  A    between atoms: C_11  and  C_12
REMARK    6  A    between atoms: C_11  and  N_28
REMARK    7  A    between atoms: C_12  and  C_13
REMARK    8  A    between atoms: C_12  and  N_29
REMARK                            x       y       z     vdW  Elec       q    Type
REMARK                         _______ _______ _______ _____ _____    ______ ____
ROOT
ATOM      1  C   UNL     1     -44.698 -15.256 -26.464  0.00  0.00    +0.000 C 
ENDROOT
BRANCH   1   4
ATOM      2  C   UNL     1     -43.730 -17.597 -26.536  0.00  0.00    +0.000 C 
ATOM      3  O   UNL     1     -42.559 -17.144 -26.429  0.00  0.00    +0.000 OA
ATOM      4  N   UNL     1     -44.845 -16.702 -26.554  0.00  0.00    +0.000 NA
BRANCH   2   6
ATOM      5  C   UNL     1     -44.126 -19.859 -25.501  0.00  0.00    +0.000 C 
ATOM      6  C   UNL     1     -43.925 -19.055 -26.553  0.00  0.00    +0.000 C 
BRANCH   5  10
ATOM      7  C   UNL     1     -44.792 -18.870 -21.382  0.00  0.00    +0.000 A 
ATOM      8  C   UNL     1     -43.639 -19.597 -21.775  0.00  0.00    +0.000 A 
ATOM      9  C   UNL     1     -43.445 -19.889 -23.129  0.00  0.00    +0.000 A 
ATOM     10  C   UNL     1     -44.352 -19.463 -24.101  0.00  0.00    +0.000 A 
ATOM     11  C   UNL     1     -45.504 -18.775 -23.707  0.00  0.00    +0.000 A 
ATOM     12  C   UNL     1     -45.717 -18.473 -22.362  0.00  0.00    +0.000 A 
BRANCH   7  14
ATOM     13  C   UNL     1     -46.251 -18.049 -19.554  0.00  0.00    +0.000 C 
ATOM     14  O   UNL     1     -45.013 -18.553 -20.037  0.00  0.00    +0.000 OA
ENDBRANCH   7  14
BRANCH   8  16
ATOM     15  C   UNL     1     -41.509 -19.321 -20.489  0.00  0.00    +0.000 C 
ATOM     16  O   UNL     1     -42.662 -20.054 -20.877  0.00  0.00    +0.000 OA
ENDBRANCH   8  16
ENDBRANCH   5  10
ENDBRANCH   2   6
ENDBRANCH   1   4
BRANCH   1  17
ATOM     17  C   UNL     1     -45.722 -14.675 -25.491  0.00  0.00    +0.000 C 
BRANCH  17  18
ATOM     18  C   UNL     1     -45.298 -14.850 -24.053  0.00  0.00    +0.000 A 
ATOM     19  C   UNL     1     -46.257 -14.695 -23.045  0.00  0.00    +0.000 A 
ATOM     20  C   UNL     1     -45.903 -14.865 -21.703  0.00  0.00    +0.000 A 
ATOM     21  C   UNL     1     -44.589 -15.197 -21.363  0.00  0.00    +0.000 A 
ATOM     22  C   UNL     1     -43.630 -15.363 -22.364  0.00  0.00    +0.000 A 
ATOM     23  C   UNL     1     -43.982 -15.193 -23.706  0.00  0.00    +0.000 A 
ATOM     24  F   UNL     1     -44.248 -15.361 -20.062  0.00  0.00    +0.000 F 
ENDBRANCH  17  18
BRANCH  17  30
ATOM     25  C   UNL     1     -46.628 -13.233 -27.237  0.00  0.00    +0.000 C 
ATOM     26  C   UNL     1     -46.902 -11.774 -27.606  0.00  0.00    +0.000 C 
ATOM     27  C   UNL     1     -45.336 -11.002 -26.169  0.00  0.00    +0.000 C 
ATOM     28  C   UNL     1     -44.959 -12.411 -25.706  0.00  0.00    +0.000 C 
ATOM     29  O   UNL     1     -45.709 -11.032 -27.524  0.00  0.00    +0.000 OA
ATOM     30  N   UNL     1     -46.113 -13.304 -25.862  0.00  0.00    +0.000 NA
ENDBRANCH  17  30
ENDBRANCH   1  17
TORSDOF 8
ENDMDL
