MODEL 1
REMARK VINA RESULT:      -6.8      0.000      0.000
REMARK  Name = ZINC000096181546
REMARK  2 active torsions:
REMARK  status: ('A' for Active; 'I' for Inactive)
REMARK    1  A    between atoms: C_5  and  C_6
REMARK    2  A    between atoms: C_10  and  C_11
REMARK                            x       y       z     vdW  Elec       q    Type
REMARK                         _______ _______ _______ _____ _____    ______ ____
ROOT
ATOM      1  C   UNL     1     -45.936 -18.107 -20.215  0.00  0.00    +0.000 C 
ATOM      2  C   UNL     1     -45.617 -19.787 -18.652  0.00  0.00    +0.000 C 
ATOM      3  C   UNL     1     -44.179 -19.926 -19.029  0.00  0.00    +0.000 C 
ATOM      4  C   UNL     1     -42.177 -18.931 -20.163  0.00  0.00    +0.000 C 
ATOM      5  C   UNL     1     -44.496 -18.142 -20.768  0.00  0.00    +0.000 C 
ATOM      6  N   UNL     1     -43.618 -18.993 -19.959  0.00  0.00    +0.000 N 
ATOM      7  O   UNL     1     -46.388 -19.372 -19.761  0.00  0.00    +0.000 OA
ATOM      8  O   UNL     1     -43.476 -20.837 -18.517  0.00  0.00    +0.000 OA
ENDROOT
BRANCH   1  13
ATOM      9  C   UNL     1     -44.106 -12.310 -15.874  0.00  0.00    +0.000 C 
ATOM     10  C   UNL     1     -44.771 -13.414 -16.613  0.00  0.00    +0.000 A 
ATOM     11  C   UNL     1     -44.153 -14.260 -17.514  0.00  0.00    +0.000 A 
ATOM     12  C   UNL     1     -45.208 -15.071 -17.888  0.00  0.00    +0.000 A 
ATOM     13  C   UNL     1     -46.177 -16.996 -19.233  0.00  0.00    +0.000 C 
ATOM     14  N   UNL     1     -45.099 -16.143 -18.829  0.00  0.00    +0.000 NA
ATOM     15  N   UNL     1     -46.346 -14.725 -17.257  0.00  0.00    +0.000 NA
ATOM     16  O   UNL     1     -47.331 -16.849 -18.750  0.00  0.00    +0.000 OA
ATOM     17  O   UNL     1     -46.041 -13.719 -16.495  0.00  0.00    +0.000 OA
ENDBRANCH   1  13
BRANCH   5  18
ATOM     18  C   UNL     1     -44.491 -18.581 -22.202  0.00  0.00    +0.000 A 
ATOM     19  C   UNL     1     -43.709 -19.666 -22.627  0.00  0.00    +0.000 A 
ATOM     20  C   UNL     1     -43.715 -20.051 -23.970  0.00  0.00    +0.000 A 
ATOM     21  C   UNL     1     -44.499 -19.354 -24.894  0.00  0.00    +0.000 A 
ATOM     22  C   UNL     1     -44.505 -19.763 -26.322  0.00  0.00    +0.000 C 
ATOM     23  C   UNL     1     -45.278 -18.271 -24.475  0.00  0.00    +0.000 A 
ATOM     24  C   UNL     1     -45.273 -17.885 -23.130  0.00  0.00    +0.000 A 
ENDBRANCH   5  18
TORSDOF 2
ENDMDL
MODEL 2
REMARK VINA RESULT:      -6.4     12.360     14.734
REMARK  Name = ZINC000096181546
REMARK  2 active torsions:
REMARK  status: ('A' for Active; 'I' for Inactive)
REMARK    1  A    between atoms: C_5  and  C_6
REMARK    2  A    between atoms: C_10  and  C_11
REMARK                            x       y       z     vdW  Elec       q    Type
REMARK                         _______ _______ _______ _____ _____    ______ ____
ROOT
ATOM      1  C   UNL     1     -47.180  -7.792 -29.332  0.00  0.00    +0.000 C 
ATOM      2  C   UNL     1     -46.607  -6.983 -31.425  0.00  0.00    +0.000 C 
ATOM      3  C   UNL     1     -45.364  -6.352 -30.891  0.00  0.00    +0.000 C 
ATOM      4  C   UNL     1     -43.681  -6.218 -29.039  0.00  0.00    +0.000 C 
ATOM      5  C   UNL     1     -45.975  -7.169 -28.597  0.00  0.00    +0.000 C 
ATOM      6  N   UNL     1     -44.998  -6.598 -29.529  0.00  0.00    +0.000 N 
ATOM      7  O   UNL     1     -47.616  -7.018 -30.438  0.00  0.00    +0.000 OA
ATOM      8  O   UNL     1     -44.646  -5.636 -31.638  0.00  0.00    +0.000 OA
ENDROOT
BRANCH   1  13
ATOM      9  C   UNL     1     -44.036 -14.552 -28.883  0.00  0.00    +0.000 C 
ATOM     10  C   UNL     1     -44.859 -13.355 -29.191  0.00  0.00    +0.000 A 
ATOM     11  C   UNL     1     -44.702 -12.106 -28.619  0.00  0.00    +0.000 A 
ATOM     12  C   UNL     1     -45.703 -11.393 -29.251  0.00  0.00    +0.000 A 
ATOM     13  C   UNL     1     -47.005  -9.249 -29.652  0.00  0.00    +0.000 C 
ATOM     14  N   UNL     1     -45.974 -10.009 -29.010  0.00  0.00    +0.000 NA
ATOM     15  N   UNL     1     -46.386 -12.162 -30.120  0.00  0.00    +0.000 NA
ATOM     16  O   UNL     1     -47.756  -9.779 -30.513  0.00  0.00    +0.000 OA
ATOM     17  O   UNL     1     -45.846 -13.341 -30.055  0.00  0.00    +0.000 OA
ENDBRANCH   1  13
BRANCH   5  18
ATOM     18  C   UNL     1     -46.433  -6.141 -27.607  0.00  0.00    +0.000 A 
ATOM     19  C   UNL     1     -46.916  -4.892 -28.028  0.00  0.00    +0.000 A 
ATOM     20  C   UNL     1     -47.330  -3.946 -27.086  0.00  0.00    +0.000 A 
ATOM     21  C   UNL     1     -47.263  -4.242 -25.722  0.00  0.00    +0.000 A 
ATOM     22  C   UNL     1     -47.703  -3.237 -24.720  0.00  0.00    +0.000 C 
ATOM     23  C   UNL     1     -46.781  -5.485 -25.298  0.00  0.00    +0.000 A 
ATOM     24  C   UNL     1     -46.366  -6.432 -26.241  0.00  0.00    +0.000 A 
ENDBRANCH   5  18
TORSDOF 2
ENDMDL
MODEL 3
REMARK VINA RESULT:      -6.3     16.015     17.792
REMARK  Name = ZINC000096181546
REMARK  2 active torsions:
REMARK  status: ('A' for Active; 'I' for Inactive)
REMARK    1  A    between atoms: C_5  and  C_6
REMARK    2  A    between atoms: C_10  and  C_11
REMARK                            x       y       z     vdW  Elec       q    Type
REMARK                         _______ _______ _______ _____ _____    ______ ____
ROOT
ATOM      1  C   UNL     1     -45.599  -3.873 -30.715  0.00  0.00    +0.000 C 
ATOM      2  C   UNL     1     -47.435  -4.048 -32.115  0.00  0.00    +0.000 C 
ATOM      3  C   UNL     1     -46.580  -4.500 -33.253  0.00  0.00    +0.000 C 
ATOM      4  C   UNL     1     -44.382  -5.433 -34.015  0.00  0.00    +0.000 C 
ATOM      5  C   UNL     1     -44.559  -4.275 -31.781  0.00  0.00    +0.000 C 
ATOM      6  N   UNL     1     -45.192  -4.757 -33.012  0.00  0.00    +0.000 N 
ATOM      7  O   UNL     1     -46.715  -3.187 -31.259  0.00  0.00    +0.000 OA
ATOM      8  O   UNL     1     -47.084  -4.669 -34.395  0.00  0.00    +0.000 OA
ENDROOT
BRANCH   1  13
ATOM      9  C   UNL     1     -46.015 -10.952 -28.371  0.00  0.00    +0.000 C 
ATOM     10  C   UNL     1     -46.102  -9.481 -28.561  0.00  0.00    +0.000 A 
ATOM     11  C   UNL     1     -45.560  -8.778 -29.621  0.00  0.00    +0.000 A 
ATOM     12  C   UNL     1     -45.928  -7.485 -29.301  0.00  0.00    +0.000 A 
ATOM     13  C   UNL     1     -45.977  -4.992 -29.788  0.00  0.00    +0.000 C 
ATOM     14  N   UNL     1     -45.606  -6.341 -30.098  0.00  0.00    +0.000 NA
ATOM     15  N   UNL     1     -46.627  -7.440 -28.151  0.00  0.00    +0.000 NA
ATOM     16  O   UNL     1     -46.648  -4.729 -28.755  0.00  0.00    +0.000 OA
ATOM     17  O   UNL     1     -46.711  -8.666 -27.734  0.00  0.00    +0.000 OA
ENDBRANCH   1  13
BRANCH   5  18
ATOM     18  C   UNL     1     -43.629  -3.134 -32.070  0.00  0.00    +0.000 A 
ATOM     19  C   UNL     1     -44.101  -1.815 -32.153  0.00  0.00    +0.000 A 
ATOM     20  C   UNL     1     -43.217  -0.770 -32.431  0.00  0.00    +0.000 A 
ATOM     21  C   UNL     1     -41.859  -1.037 -32.628  0.00  0.00    +0.000 A 
ATOM     22  C   UNL     1     -40.918   0.075 -32.925  0.00  0.00    +0.000 C 
ATOM     23  C   UNL     1     -41.385  -2.349 -32.549  0.00  0.00    +0.000 A 
ATOM     24  C   UNL     1     -42.270  -3.397 -32.270  0.00  0.00    +0.000 A 
ENDBRANCH   5  18
TORSDOF 2
ENDMDL
