MODEL 1
REMARK VINA RESULT:      -6.8      0.000      0.000
REMARK  Name = ZINC000096181850 ZINC96181850 PubChem-97457680
REMARK  3 active torsions:
REMARK  status: ('A' for Active; 'I' for Inactive)
REMARK    1  A    between atoms: C_5  and  N_21
REMARK    2  A    between atoms: C_7  and  C_8
REMARK    3  A    between atoms: C_12  and  C_13
REMARK                            x       y       z     vdW  Elec       q    Type
REMARK                         _______ _______ _______ _____ _____    ______ ____
ROOT
ATOM      1  C   UNL     1     -45.980 -18.123 -20.437  0.00  0.00    +0.000 C 
ATOM      2  C   UNL     1     -46.070 -19.440 -19.666  0.00  0.00    +0.000 C 
ATOM      3  C   UNL     1     -44.928 -19.585 -18.671  0.00  0.00    +0.000 C 
ATOM      4  C   UNL     1     -43.608 -19.362 -19.337  0.00  0.00    +0.000 C 
ATOM      5  C   UNL     1     -44.653 -17.991 -21.204  0.00  0.00    +0.000 C 
ATOM      6  C   UNL     1     -42.170 -17.983 -20.849  0.00  0.00    +0.000 C 
ATOM      7  N   UNL     1     -43.488 -18.433 -20.428  0.00  0.00    +0.000 N 
ATOM      8  O   UNL     1     -42.593 -19.968 -18.901  0.00  0.00    +0.000 OA
ENDROOT
BRANCH   5   9
ATOM      9  C   UNL     1     -44.714 -18.685 -22.533  0.00  0.00    +0.000 A 
ATOM     10  C   UNL     1     -43.787 -19.680 -22.878  0.00  0.00    +0.000 A 
ATOM     11  C   UNL     1     -43.865 -20.312 -24.121  0.00  0.00    +0.000 A 
ATOM     12  C   UNL     1     -44.862 -19.947 -25.028  0.00  0.00    +0.000 A 
ATOM     13  C   UNL     1     -45.778 -18.943 -24.693  0.00  0.00    +0.000 A 
ATOM     14  C   UNL     1     -45.703 -18.315 -23.449  0.00  0.00    +0.000 A 
ATOM     15  F   UNL     1     -44.938 -20.562 -26.230  0.00  0.00    +0.000 F 
ENDBRANCH   5   9
BRANCH   1  16
ATOM     16  C   UNL     1     -46.256 -16.941 -19.559  0.00  0.00    +0.000 C 
ATOM     17  N   UNL     1     -45.427 -15.775 -19.635  0.00  0.00    +0.000 NA
ATOM     18  O   UNL     1     -47.208 -17.004 -18.737  0.00  0.00    +0.000 OA
BRANCH  17  23
ATOM     19  C   UNL     1     -46.837 -11.084 -19.039  0.00  0.00    +0.000 C 
ATOM     20  C   UNL     1     -46.208 -12.323 -18.507  0.00  0.00    +0.000 A 
ATOM     21  C   UNL     1     -45.709 -12.350 -17.204  0.00  0.00    +0.000 A 
ATOM     22  C   UNL     1     -45.123 -13.523 -16.724  0.00  0.00    +0.000 A 
ATOM     23  C   UNL     1     -45.529 -14.618 -18.799  0.00  0.00    +0.000 A 
ATOM     24  C   UNL     1     -46.116 -13.459 -19.313  0.00  0.00    +0.000 A 
ATOM     25  N   UNL     1     -45.043 -14.622 -17.524  0.00  0.00    +0.000 NA
ENDBRANCH  17  23
ENDBRANCH   1  16
TORSDOF 3
ENDMDL
MODEL 2
REMARK VINA RESULT:      -6.3     14.710     17.059
REMARK  Name = ZINC000096181850 ZINC96181850 PubChem-97457680
REMARK  3 active torsions:
REMARK  status: ('A' for Active; 'I' for Inactive)
REMARK    1  A    between atoms: C_5  and  N_21
REMARK    2  A    between atoms: C_7  and  C_8
REMARK    3  A    between atoms: C_12  and  C_13
REMARK                            x       y       z     vdW  Elec       q    Type
REMARK                         _______ _______ _______ _____ _____    ______ ____
ROOT
ATOM      1  C   UNL     1     -45.128  -4.195 -30.776  0.00  0.00    +0.000 C 
ATOM      2  C   UNL     1     -46.496  -3.598 -31.106  0.00  0.00    +0.000 C 
ATOM      3  C   UNL     1     -47.281  -4.490 -32.057  0.00  0.00    +0.000 C 
ATOM      4  C   UNL     1     -46.464  -4.835 -33.261  0.00  0.00    +0.000 C 
ATOM      5  C   UNL     1     -44.276  -4.421 -32.036  0.00  0.00    +0.000 C 
ATOM      6  C   UNL     1     -44.302  -5.629 -34.235  0.00  0.00    +0.000 C 
ATOM      7  N   UNL     1     -45.038  -4.986 -33.157  0.00  0.00    +0.000 N 
ATOM      8  O   UNL     1     -47.049  -5.035 -34.359  0.00  0.00    +0.000 OA
ENDROOT
BRANCH   5   9
ATOM      9  C   UNL     1     -43.556  -3.171 -32.446  0.00  0.00    +0.000 A 
ATOM     10  C   UNL     1     -44.258  -2.023 -32.846  0.00  0.00    +0.000 A 
ATOM     11  C   UNL     1     -43.564  -0.871 -33.222  0.00  0.00    +0.000 A 
ATOM     12  C   UNL     1     -42.168  -0.862 -33.210  0.00  0.00    +0.000 A 
ATOM     13  C   UNL     1     -41.465  -2.010 -32.828  0.00  0.00    +0.000 A 
ATOM     14  C   UNL     1     -42.158  -3.161 -32.447  0.00  0.00    +0.000 A 
ATOM     15  F   UNL     1     -41.498   0.255 -33.573  0.00  0.00    +0.000 F 
ENDBRANCH   5   9
BRANCH   1  16
ATOM     16  C   UNL     1     -45.245  -5.427 -29.932  0.00  0.00    +0.000 C 
ATOM     17  N   UNL     1     -46.185  -5.477 -28.852  0.00  0.00    +0.000 NA
ATOM     18  O   UNL     1     -44.485  -6.402 -30.172  0.00  0.00    +0.000 OA
BRANCH  17  23
ATOM     19  C   UNL     1     -45.565  -7.264 -24.294  0.00  0.00    +0.000 C 
ATOM     20  C   UNL     1     -46.026  -7.434 -25.698  0.00  0.00    +0.000 A 
ATOM     21  C   UNL     1     -46.590  -8.643 -26.108  0.00  0.00    +0.000 A 
ATOM     22  C   UNL     1     -47.017  -8.781 -27.430  0.00  0.00    +0.000 A 
ATOM     23  C   UNL     1     -46.337  -6.554 -27.922  0.00  0.00    +0.000 A 
ATOM     24  C   UNL     1     -45.893  -6.383 -26.608  0.00  0.00    +0.000 A 
ATOM     25  N   UNL     1     -46.881  -7.746 -28.303  0.00  0.00    +0.000 NA
ENDBRANCH  17  23
ENDBRANCH   1  16
TORSDOF 3
ENDMDL
MODEL 3
REMARK VINA RESULT:      -6.2      4.157      8.356
REMARK  Name = ZINC000096181850 ZINC96181850 PubChem-97457680
REMARK  3 active torsions:
REMARK  status: ('A' for Active; 'I' for Inactive)
REMARK    1  A    between atoms: C_5  and  N_21
REMARK    2  A    between atoms: C_7  and  C_8
REMARK    3  A    between atoms: C_12  and  C_13
REMARK                            x       y       z     vdW  Elec       q    Type
REMARK                         _______ _______ _______ _____ _____    ______ ____
ROOT
ATOM      1  C   UNL     1     -45.401 -18.158 -24.231  0.00  0.00    +0.000 C 
ATOM      2  C   UNL     1     -46.213 -17.081 -24.950  0.00  0.00    +0.000 C 
ATOM      3  C   UNL     1     -45.311 -16.051 -25.613  0.00  0.00    +0.000 C 
ATOM      4  C   UNL     1     -44.314 -15.509 -24.640  0.00  0.00    +0.000 C 
ATOM      5  C   UNL     1     -44.477 -17.564 -23.155  0.00  0.00    +0.000 C 
ATOM      6  C   UNL     1     -42.604 -15.921 -22.862  0.00  0.00    +0.000 C 
ATOM      7  N   UNL     1     -43.792 -16.340 -23.591  0.00  0.00    +0.000 N 
ATOM      8  O   UNL     1     -43.904 -14.325 -24.780  0.00  0.00    +0.000 OA
ENDROOT
BRANCH   5   9
ATOM      9  C   UNL     1     -45.205 -17.347 -21.862  0.00  0.00    +0.000 A 
ATOM     10  C   UNL     1     -45.501 -16.054 -21.401  0.00  0.00    +0.000 A 
ATOM     11  C   UNL     1     -46.181 -15.878 -20.194  0.00  0.00    +0.000 A 
ATOM     12  C   UNL     1     -46.559 -16.989 -19.437  0.00  0.00    +0.000 A 
ATOM     13  C   UNL     1     -46.250 -18.278 -19.885  0.00  0.00    +0.000 A 
ATOM     14  C   UNL     1     -45.575 -18.455 -21.095  0.00  0.00    +0.000 A 
ATOM     15  F   UNL     1     -47.219 -16.816 -18.269  0.00  0.00    +0.000 F 
ENDBRANCH   5   9
BRANCH   1  16
ATOM     16  C   UNL     1     -44.670 -19.042 -25.193  0.00  0.00    +0.000 C 
ATOM     17  N   UNL     1     -43.274 -18.837 -25.446  0.00  0.00    +0.000 NA
ATOM     18  O   UNL     1     -45.308 -19.947 -25.793  0.00  0.00    +0.000 OA
BRANCH  17  23
ATOM     19  C   UNL     1     -42.481 -20.222 -30.115  0.00  0.00    +0.000 C 
ATOM     20  C   UNL     1     -42.097 -20.239 -28.678  0.00  0.00    +0.000 A 
ATOM     21  C   UNL     1     -40.976 -20.960 -28.262  0.00  0.00    +0.000 A 
ATOM     22  C   UNL     1     -40.632 -20.962 -26.908  0.00  0.00    +0.000 A 
ATOM     23  C   UNL     1     -42.481 -19.552 -26.398  0.00  0.00    +0.000 A 
ATOM     24  C   UNL     1     -42.858 -19.533 -27.744  0.00  0.00    +0.000 A 
ATOM     25  N   UNL     1     -41.385 -20.267 -26.013  0.00  0.00    +0.000 NA
ENDBRANCH  17  23
ENDBRANCH   1  16
TORSDOF 3
ENDMDL
