MODEL 1
REMARK VINA RESULT:      -6.8      0.000      0.000
REMARK  Name = ZINC000270349038 PubChem-125135852
REMARK  4 active torsions:
REMARK  status: ('A' for Active; 'I' for Inactive)
REMARK    1  A    between atoms: C_4  and  C_5
REMARK    2  A    between atoms: C_5  and  N_19
REMARK    3  A    between atoms: C_6  and  C_7
REMARK    4  A    between atoms: C_11  and  C_12
REMARK                            x       y       z     vdW  Elec       q    Type
REMARK                         _______ _______ _______ _____ _____    ______ ____
ROOT
ATOM      1  C   UNL     1     -46.064  -3.766 -31.239  0.00  0.00    +0.000 C 
ATOM      2  C   UNL     1     -47.247  -4.192 -32.119  0.00  0.00    +0.000 C 
ATOM      3  C   UNL     1     -46.593  -4.717 -33.333  0.00  0.00    +0.000 C 
ATOM      4  C   UNL     1     -44.293  -5.322 -34.211  0.00  0.00    +0.000 C 
ATOM      5  C   UNL     1     -44.768  -4.152 -31.977  0.00  0.00    +0.000 C 
ATOM      6  N   UNL     1     -45.184  -4.663 -33.270  0.00  0.00    +0.000 N 
ATOM      7  O   UNL     1     -47.221  -5.179 -34.321  0.00  0.00    +0.000 OA
ENDROOT
BRANCH   5   8
ATOM      8  C   UNL     1     -43.863  -2.968 -32.129  0.00  0.00    +0.000 A 
ATOM      9  C   UNL     1     -44.425  -1.695 -32.266  0.00  0.00    +0.000 A 
ATOM     10  C   UNL     1     -43.602  -0.574 -32.409  0.00  0.00    +0.000 A 
ATOM     11  C   UNL     1     -42.211  -0.724 -32.416  0.00  0.00    +0.000 A 
ATOM     12  C   UNL     1     -41.644  -1.994 -32.280  0.00  0.00    +0.000 A 
ATOM     13  C   UNL     1     -42.467  -3.115 -32.137  0.00  0.00    +0.000 A 
ATOM     14  F   UNL     1     -41.415   0.362 -32.555  0.00  0.00    +0.000 F 
ENDBRANCH   5   8
BRANCH   1  15
ATOM     15  C   UNL     1     -46.129  -4.434 -29.906  0.00  0.00    +0.000 C 
ATOM     16  N   UNL     1     -47.109  -4.030 -28.946  0.00  0.00    +0.000 NA
ATOM     17  O   UNL     1     -45.313  -5.355 -29.635  0.00  0.00    +0.000 OA
BRANCH  16  18
ATOM     18  C   UNL     1     -47.211  -4.655 -27.639  0.00  0.00    +0.000 C 
BRANCH  18  22
ATOM     19  C   UNL     1     -47.181  -2.512 -23.225  0.00  0.00    +0.000 C 
ATOM     20  C   UNL     1     -47.230  -2.700 -24.699  0.00  0.00    +0.000 A 
ATOM     21  C   UNL     1     -47.359  -1.701 -25.639  0.00  0.00    +0.000 A 
ATOM     22  C   UNL     1     -47.233  -3.604 -26.587  0.00  0.00    +0.000 A 
ATOM     23  N   UNL     1     -47.363  -2.288 -26.854  0.00  0.00    +0.000 NA
ATOM     24  O   UNL     1     -47.156  -3.857 -25.303  0.00  0.00    +0.000 OA
ENDBRANCH  18  22
ENDBRANCH  16  18
ENDBRANCH   1  15
TORSDOF 4
ENDMDL
MODEL 2
REMARK VINA RESULT:      -6.1      2.766      4.065
REMARK  Name = ZINC000270349038 PubChem-125135852
REMARK  4 active torsions:
REMARK  status: ('A' for Active; 'I' for Inactive)
REMARK    1  A    between atoms: C_4  and  C_5
REMARK    2  A    between atoms: C_5  and  N_19
REMARK    3  A    between atoms: C_6  and  C_7
REMARK    4  A    between atoms: C_11  and  C_12
REMARK                            x       y       z     vdW  Elec       q    Type
REMARK                         _______ _______ _______ _____ _____    ______ ____
ROOT
ATOM      1  C   UNL     1     -46.218  -3.764 -32.093  0.00  0.00    +0.000 C 
ATOM      2  C   UNL     1     -47.216  -4.391 -33.076  0.00  0.00    +0.000 C 
ATOM      3  C   UNL     1     -46.346  -5.112 -34.025  0.00  0.00    +0.000 C 
ATOM      4  C   UNL     1     -43.922  -5.790 -34.332  0.00  0.00    +0.000 C 
ATOM      5  C   UNL     1     -44.807  -4.236 -32.492  0.00  0.00    +0.000 C 
ATOM      6  N   UNL     1     -44.974  -4.997 -33.716  0.00  0.00    +0.000 N 
ATOM      7  O   UNL     1     -46.778  -5.775 -35.004  0.00  0.00    +0.000 OA
ENDROOT
BRANCH   5   8
ATOM      8  C   UNL     1     -43.889  -3.070 -32.700  0.00  0.00    +0.000 A 
ATOM      9  C   UNL     1     -42.533  -3.208 -32.391  0.00  0.00    +0.000 A 
ATOM     10  C   UNL     1     -41.656  -2.135 -32.576  0.00  0.00    +0.000 A 
ATOM     11  C   UNL     1     -42.135  -0.918 -33.072  0.00  0.00    +0.000 A 
ATOM     12  C   UNL     1     -43.490  -0.775 -33.383  0.00  0.00    +0.000 A 
ATOM     13  C   UNL     1     -44.367  -1.848 -33.197  0.00  0.00    +0.000 A 
ATOM     14  F   UNL     1     -41.286   0.121 -33.251  0.00  0.00    +0.000 F 
ENDBRANCH   5   8
BRANCH   1  15
ATOM     15  C   UNL     1     -46.532  -4.169 -30.691  0.00  0.00    +0.000 C 
ATOM     16  N   UNL     1     -46.650  -5.552 -30.351  0.00  0.00    +0.000 NA
ATOM     17  O   UNL     1     -46.690  -3.280 -29.812  0.00  0.00    +0.000 OA
BRANCH  16  18
ATOM     18  C   UNL     1     -46.950  -5.992 -28.999  0.00  0.00    +0.000 C 
BRANCH  18  22
ATOM     19  C   UNL     1     -46.559 -10.697 -30.334  0.00  0.00    +0.000 C 
ATOM     20  C   UNL     1     -46.646  -9.474 -29.493  0.00  0.00    +0.000 A 
ATOM     21  C   UNL     1     -46.625  -9.435 -28.116  0.00  0.00    +0.000 A 
ATOM     22  C   UNL     1     -46.801  -7.469 -28.913  0.00  0.00    +0.000 A 
ATOM     23  N   UNL     1     -46.728  -8.141 -27.747  0.00  0.00    +0.000 NA
ATOM     24  O   UNL     1     -46.757  -8.258 -29.959  0.00  0.00    +0.000 OA
ENDBRANCH  18  22
ENDBRANCH  16  18
ENDBRANCH   1  15
TORSDOF 4
ENDMDL
MODEL 3
REMARK VINA RESULT:      -6.1      2.760      3.172
REMARK  Name = ZINC000270349038 PubChem-125135852
REMARK  4 active torsions:
REMARK  status: ('A' for Active; 'I' for Inactive)
REMARK    1  A    between atoms: C_4  and  C_5
REMARK    2  A    between atoms: C_5  and  N_19
REMARK    3  A    between atoms: C_6  and  C_7
REMARK    4  A    between atoms: C_11  and  C_12
REMARK                            x       y       z     vdW  Elec       q    Type
REMARK                         _______ _______ _______ _____ _____    ______ ____
ROOT
ATOM      1  C   UNL     1     -46.278  -3.782 -32.060  0.00  0.00    +0.000 C 
ATOM      2  C   UNL     1     -47.274  -4.373 -33.066  0.00  0.00    +0.000 C 
ATOM      3  C   UNL     1     -46.404  -5.067 -34.034  0.00  0.00    +0.000 C 
ATOM      4  C   UNL     1     -43.982  -5.745 -34.355  0.00  0.00    +0.000 C 
ATOM      5  C   UNL     1     -44.867  -4.247 -32.469  0.00  0.00    +0.000 C 
ATOM      6  N   UNL     1     -45.033  -4.968 -33.717  0.00  0.00    +0.000 N 
ATOM      7  O   UNL     1     -46.835  -5.697 -35.035  0.00  0.00    +0.000 OA
ENDROOT
BRANCH   5   8
ATOM      8  C   UNL     1     -43.944  -3.079 -32.637  0.00  0.00    +0.000 A 
ATOM      9  C   UNL     1     -44.451  -1.878 -33.143  0.00  0.00    +0.000 A 
ATOM     10  C   UNL     1     -43.610  -0.774 -33.309  0.00  0.00    +0.000 A 
ATOM     11  C   UNL     1     -42.256  -0.868 -32.969  0.00  0.00    +0.000 A 
ATOM     12  C   UNL     1     -41.745  -2.066 -32.463  0.00  0.00    +0.000 A 
ATOM     13  C   UNL     1     -42.585  -3.170 -32.297  0.00  0.00    +0.000 A 
ATOM     14  F   UNL     1     -41.442   0.202 -33.130  0.00  0.00    +0.000 F 
ENDBRANCH   5   8
BRANCH   1  15
ATOM     15  C   UNL     1     -46.598  -4.230 -30.672  0.00  0.00    +0.000 C 
ATOM     16  N   UNL     1     -46.617  -5.624 -30.353  0.00  0.00    +0.000 NA
ATOM     17  O   UNL     1     -46.850  -3.370 -29.788  0.00  0.00    +0.000 OA
BRANCH  16  18
ATOM     18  C   UNL     1     -46.918  -6.104 -29.016  0.00  0.00    +0.000 C 
BRANCH  18  22
ATOM     19  C   UNL     1     -42.249  -6.447 -27.547  0.00  0.00    +0.000 C 
ATOM     20  C   UNL     1     -43.682  -6.774 -27.774  0.00  0.00    +0.000 A 
ATOM     21  C   UNL     1     -44.324  -7.926 -27.374  0.00  0.00    +0.000 A 
ATOM     22  C   UNL     1     -45.679  -6.632 -28.387  0.00  0.00    +0.000 A 
ATOM     23  N   UNL     1     -45.609  -7.831 -27.773  0.00  0.00    +0.000 NA
ATOM     24  O   UNL     1     -44.532  -5.997 -28.394  0.00  0.00    +0.000 OA
ENDBRANCH  18  22
ENDBRANCH  16  18
ENDBRANCH   1  15
TORSDOF 4
ENDMDL
