MODEL 1
REMARK VINA RESULT:      -5.9      0.000      0.000
REMARK  Name = ZINC000004686535 ZINC04686535 PubChem-92227604
REMARK  5 active torsions:
REMARK  status: ('A' for Active; 'I' for Inactive)
REMARK    1  A    between atoms: C_6  and  N_23
REMARK    2  A    between atoms: C_9  and  C_10
REMARK    3  A    between atoms: C_14  and  C_15
REMARK    4  A    between atoms: C_14  and  N_24
REMARK    5  A    between atoms: C_15  and  C_16
REMARK                            x       y       z     vdW  Elec       q    Type
REMARK                         _______ _______ _______ _____ _____    ______ ____
ROOT
ATOM      1  C   UNL     1     -45.080 -13.744 -25.198  0.00  0.00    +0.000 C 
ATOM      2  C   UNL     1     -46.022 -12.609 -25.633  0.00  0.00    +0.000 C 
ATOM      3  C   UNL     1     -46.268 -12.749 -27.139  0.00  0.00    +0.000 C 
ATOM      4  C   UNL     1     -45.421 -13.895 -27.516  0.00  0.00    +0.000 C 
ATOM      5  C   UNL     1     -43.839 -13.142 -24.554  0.00  0.00    +0.000 C 
ATOM      6  N   UNL     1     -44.717 -14.448 -26.422  0.00  0.00    +0.000 N 
ATOM      7  O   UNL     1     -45.341 -14.348 -28.688  0.00  0.00    +0.000 OA
ENDROOT
BRANCH   1   8
ATOM      8  C   UNL     1     -45.811 -14.655 -24.245  0.00  0.00    +0.000 C 
ATOM      9  N   UNL     1     -45.167 -15.087 -23.041  0.00  0.00    +0.000 NA
ATOM     10  O   UNL     1     -46.960 -15.089 -24.534  0.00  0.00    +0.000 OA
BRANCH   9  16
ATOM     11  C   UNL     1     -46.716 -15.858 -18.356  0.00  0.00    +0.000 C 
ATOM     12  C   UNL     1     -46.536 -16.424 -19.754  0.00  0.00    +0.000 C 
ATOM     13  C   UNL     1     -45.748 -17.731 -19.710  0.00  0.00    +0.000 C 
ATOM     14  C   UNL     1     -45.643 -18.328 -21.112  0.00  0.00    +0.000 C 
ATOM     15  C   UNL     1     -44.978 -17.339 -22.066  0.00  0.00    +0.000 C 
ATOM     16  C   UNL     1     -45.773 -16.029 -22.108  0.00  0.00    +0.000 C 
ATOM     17  C   UNL     1     -45.886 -15.408 -20.708  0.00  0.00    +0.000 C 
ATOM     18  C   UNL     1     -44.530 -14.922 -20.194  0.00  0.00    +0.000 C 
ENDBRANCH   9  16
ENDBRANCH   1   8
BRANCH   6  19
ATOM     19  C   UNL     1     -43.891 -15.652 -26.485  0.00  0.00    +0.000 C 
BRANCH  19  20
ATOM     20  C   UNL     1     -44.756 -16.905 -26.555  0.00  0.00    +0.000 C 
BRANCH  20  21
ATOM     21  C   UNL     1     -44.192 -18.006 -25.722  0.00  0.00    +0.000 A 
ATOM     22  C   UNL     1     -42.888 -17.920 -25.217  0.00  0.00    +0.000 A 
ATOM     23  C   UNL     1     -42.370 -18.957 -24.436  0.00  0.00    +0.000 A 
ATOM     24  C   UNL     1     -43.155 -20.081 -24.157  0.00  0.00    +0.000 A 
ATOM     25  C   UNL     1     -44.459 -20.165 -24.654  0.00  0.00    +0.000 A 
ATOM     26  C   UNL     1     -44.978 -19.127 -25.434  0.00  0.00    +0.000 A 
ATOM     27 CL   UNL     1     -42.505 -21.380 -23.181  0.00  0.00    +0.000 Cl
ENDBRANCH  20  21
ENDBRANCH  19  20
ENDBRANCH   6  19
TORSDOF 5
ENDMDL
MODEL 2
REMARK VINA RESULT:      -5.6      2.618      6.740
REMARK  Name = ZINC000004686535 ZINC04686535 PubChem-92227604
REMARK  5 active torsions:
REMARK  status: ('A' for Active; 'I' for Inactive)
REMARK    1  A    between atoms: C_6  and  N_23
REMARK    2  A    between atoms: C_9  and  C_10
REMARK    3  A    between atoms: C_14  and  C_15
REMARK    4  A    between atoms: C_14  and  N_24
REMARK    5  A    between atoms: C_15  and  C_16
REMARK                            x       y       z     vdW  Elec       q    Type
REMARK                         _______ _______ _______ _____ _____    ______ ____
ROOT
ATOM      1  C   UNL     1     -44.110 -17.418 -25.264  0.00  0.00    +0.000 C 
ATOM      2  C   UNL     1     -43.362 -17.912 -26.513  0.00  0.00    +0.000 C 
ATOM      3  C   UNL     1     -43.835 -19.339 -26.813  0.00  0.00    +0.000 C 
ATOM      4  C   UNL     1     -44.765 -19.628 -25.708  0.00  0.00    +0.000 C 
ATOM      5  C   UNL     1     -43.095 -17.025 -24.199  0.00  0.00    +0.000 C 
ATOM      6  N   UNL     1     -44.904 -18.551 -24.803  0.00  0.00    +0.000 N 
ATOM      7  O   UNL     1     -45.387 -20.717 -25.586  0.00  0.00    +0.000 OA
ENDROOT
BRANCH   1   8
ATOM      8  C   UNL     1     -44.992 -16.256 -25.642  0.00  0.00    +0.000 C 
ATOM      9  N   UNL     1     -44.526 -15.291 -26.592  0.00  0.00    +0.000 NA
ATOM     10  O   UNL     1     -46.110 -16.096 -25.080  0.00  0.00    +0.000 OA
BRANCH   9  16
ATOM     11  C   UNL     1     -46.543 -12.629 -30.306  0.00  0.00    +0.000 C 
ATOM     12  C   UNL     1     -46.282 -12.752 -28.814  0.00  0.00    +0.000 C 
ATOM     13  C   UNL     1     -45.603 -11.493 -28.279  0.00  0.00    +0.000 C 
ATOM     14  C   UNL     1     -45.418 -11.599 -26.767  0.00  0.00    +0.000 C 
ATOM     15  C   UNL     1     -44.597 -12.837 -26.413  0.00  0.00    +0.000 C 
ATOM     16  C   UNL     1     -45.283 -14.098 -26.951  0.00  0.00    +0.000 C 
ATOM     17  C   UNL     1     -45.473 -14.015 -28.472  0.00  0.00    +0.000 C 
ATOM     18  C   UNL     1     -44.136 -14.059 -29.213  0.00  0.00    +0.000 C 
ENDBRANCH   9  16
ENDBRANCH   1   8
BRANCH   6  19
ATOM     19  C   UNL     1     -45.838 -18.521 -23.679  0.00  0.00    +0.000 C 
BRANCH  19  20
ATOM     20  C   UNL     1     -45.125 -18.831 -22.368  0.00  0.00    +0.000 C 
BRANCH  20  21
ATOM     21  C   UNL     1     -45.606 -17.954 -21.263  0.00  0.00    +0.000 A 
ATOM     22  C   UNL     1     -45.451 -16.563 -21.339  0.00  0.00    +0.000 A 
ATOM     23  C   UNL     1     -45.907 -15.750 -20.299  0.00  0.00    +0.000 A 
ATOM     24  C   UNL     1     -46.521 -16.324 -19.181  0.00  0.00    +0.000 A 
ATOM     25  C   UNL     1     -46.683 -17.710 -19.106  0.00  0.00    +0.000 A 
ATOM     26  C   UNL     1     -46.228 -18.524 -20.148  0.00  0.00    +0.000 A 
ATOM     27 CL   UNL     1     -47.090 -15.305 -17.876  0.00  0.00    +0.000 Cl
ENDBRANCH  20  21
ENDBRANCH  19  20
ENDBRANCH   6  19
TORSDOF 5
ENDMDL
MODEL 3
REMARK VINA RESULT:      -5.5      2.659      6.473
REMARK  Name = ZINC000004686535 ZINC04686535 PubChem-92227604
REMARK  5 active torsions:
REMARK  status: ('A' for Active; 'I' for Inactive)
REMARK    1  A    between atoms: C_6  and  N_23
REMARK    2  A    between atoms: C_9  and  C_10
REMARK    3  A    between atoms: C_14  and  C_15
REMARK    4  A    between atoms: C_14  and  N_24
REMARK    5  A    between atoms: C_15  and  C_16
REMARK                            x       y       z     vdW  Elec       q    Type
REMARK                         _______ _______ _______ _____ _____    ______ ____
ROOT
ATOM      1  C   UNL     1     -42.802 -17.713 -25.247  0.00  0.00    +0.000 C 
ATOM      2  C   UNL     1     -42.316 -18.595 -26.409  0.00  0.00    +0.000 C 
ATOM      3  C   UNL     1     -43.455 -19.548 -26.790  0.00  0.00    +0.000 C 
ATOM      4  C   UNL     1     -44.505 -19.229 -25.806  0.00  0.00    +0.000 C 
ATOM      5  C   UNL     1     -41.860 -17.885 -24.064  0.00  0.00    +0.000 C 
ATOM      6  N   UNL     1     -44.131 -18.208 -24.904  0.00  0.00    +0.000 N 
ATOM      7  O   UNL     1     -45.629 -19.797 -25.778  0.00  0.00    +0.000 OA
ENDROOT
BRANCH   1   8
ATOM      8  C   UNL     1     -42.860 -16.278 -25.705  0.00  0.00    +0.000 C 
ATOM      9  N   UNL     1     -43.830 -15.883 -26.681  0.00  0.00    +0.000 NA
ATOM     10  O   UNL     1     -42.017 -15.440 -25.280  0.00  0.00    +0.000 OA
BRANCH   9  16
ATOM     11  C   UNL     1     -45.463 -11.210 -26.011  0.00  0.00    +0.000 C 
ATOM     12  C   UNL     1     -44.731 -12.195 -26.908  0.00  0.00    +0.000 C 
ATOM     13  C   UNL     1     -45.344 -12.210 -28.307  0.00  0.00    +0.000 C 
ATOM     14  C   UNL     1     -44.550 -13.144 -29.217  0.00  0.00    +0.000 C 
ATOM     15  C   UNL     1     -44.515 -14.555 -28.637  0.00  0.00    +0.000 C 
ATOM     16  C   UNL     1     -43.899 -14.535 -27.234  0.00  0.00    +0.000 C 
ATOM     17  C   UNL     1     -44.686 -13.606 -26.299  0.00  0.00    +0.000 C 
ATOM     18  C   UNL     1     -46.085 -14.151 -26.006  0.00  0.00    +0.000 C 
ENDBRANCH   9  16
ENDBRANCH   1   8
BRANCH   6  19
ATOM     19  C   UNL     1     -45.012 -17.620 -23.897  0.00  0.00    +0.000 C 
BRANCH  19  20
ATOM     20  C   UNL     1     -45.084 -18.500 -22.654  0.00  0.00    +0.000 C 
BRANCH  20  21
ATOM     21  C   UNL     1     -45.559 -17.732 -21.468  0.00  0.00    +0.000 A 
ATOM     22  C   UNL     1     -46.129 -18.395 -20.373  0.00  0.00    +0.000 A 
ATOM     23  C   UNL     1     -46.570 -17.666 -19.265  0.00  0.00    +0.000 A 
ATOM     24  C   UNL     1     -46.441 -16.273 -19.249  0.00  0.00    +0.000 A 
ATOM     25  C   UNL     1     -45.865 -15.611 -20.337  0.00  0.00    +0.000 A 
ATOM     26  C   UNL     1     -45.423 -16.340 -21.445  0.00  0.00    +0.000 A 
ATOM     27 CL   UNL     1     -46.995 -15.360 -17.863  0.00  0.00    +0.000 Cl
ENDBRANCH  20  21
ENDBRANCH  19  20
ENDBRANCH   6  19
TORSDOF 5
ENDMDL
