MODEL 1
REMARK VINA RESULT:      -6.2      0.000      0.000
REMARK  Name = ZINC000096182866 ZINC96182866 PubChem-97458158
REMARK  2 active torsions:
REMARK  status: ('A' for Active; 'I' for Inactive)
REMARK    1  A    between atoms: C_5  and  C_6
REMARK    2  A    between atoms: C_7  and  C_11
REMARK                            x       y       z     vdW  Elec       q    Type
REMARK                         _______ _______ _______ _____ _____    ______ ____
ROOT
ATOM      1  C   UNL     1     -45.985 -14.648 -22.619  0.00  0.00    +0.000 C 
ATOM      2  C   UNL     1     -44.893 -15.326 -21.768  0.00  0.00    +0.000 C 
ATOM      3  C   UNL     1     -44.838 -13.102 -20.595  0.00  0.00    +0.000 C 
ATOM      4  C   UNL     1     -45.965 -12.638 -21.462  0.00  0.00    +0.000 C 
ATOM      5  C   UNL     1     -43.028 -14.780 -20.164  0.00  0.00    +0.000 C 
ATOM      6  N   UNL     1     -44.260 -14.390 -20.835  0.00  0.00    +0.000 N 
ATOM      7  O   UNL     1     -44.368 -12.335 -19.714  0.00  0.00    +0.000 OA
ATOM      8  O   UNL     1     -46.767 -13.723 -21.879  0.00  0.00    +0.000 OA
ENDROOT
BRANCH   1  13
ATOM      9  C   UNL     1     -47.307 -12.332 -29.577  0.00  0.00    +0.000 C 
ATOM     10  C   UNL     1     -46.463 -12.739 -28.419  0.00  0.00    +0.000 A 
ATOM     11  C   UNL     1     -45.078 -12.856 -28.479  0.00  0.00    +0.000 A 
ATOM     12  C   UNL     1     -46.069 -13.379 -26.307  0.00  0.00    +0.000 A 
ATOM     13  C   UNL     1     -45.480 -14.097 -23.922  0.00  0.00    +0.000 C 
ATOM     14  C   UNL     1     -44.220 -12.604 -29.670  0.00  0.00    +0.000 C 
ATOM     15  S   UNL     1     -44.518 -13.345 -26.973  0.00  0.00    +0.000 S 
ATOM     16  N   UNL     1     -47.011 -13.035 -27.211  0.00  0.00    +0.000 NA
ATOM     17  N   UNL     1     -46.405 -13.777 -24.972  0.00  0.00    +0.000 NA
ATOM     18  O   UNL     1     -44.243 -13.936 -24.076  0.00  0.00    +0.000 OA
ENDBRANCH   1  13
BRANCH   2  19
ATOM     19  C   UNL     1     -45.449 -16.510 -21.037  0.00  0.00    +0.000 A 
ATOM     20  C   UNL     1     -45.280 -17.789 -21.579  0.00  0.00    +0.000 A 
ATOM     21  C   UNL     1     -45.778 -18.910 -20.908  0.00  0.00    +0.000 A 
ATOM     22  C   UNL     1     -46.446 -18.756 -19.689  0.00  0.00    +0.000 A 
ATOM     23  C   UNL     1     -46.614 -17.480 -19.141  0.00  0.00    +0.000 A 
ATOM     24  C   UNL     1     -46.116 -16.360 -19.811  0.00  0.00    +0.000 A 
ATOM     25  F   UNL     1     -46.930 -19.840 -19.040  0.00  0.00    +0.000 F 
ENDBRANCH   2  19
TORSDOF 2
ENDMDL
MODEL 2
REMARK VINA RESULT:      -6.0     11.677     13.370
REMARK  Name = ZINC000096182866 ZINC96182866 PubChem-97458158
REMARK  2 active torsions:
REMARK  status: ('A' for Active; 'I' for Inactive)
REMARK    1  A    between atoms: C_5  and  C_6
REMARK    2  A    between atoms: C_7  and  C_11
REMARK                            x       y       z     vdW  Elec       q    Type
REMARK                         _______ _______ _______ _____ _____    ______ ____
ROOT
ATOM      1  C   UNL     1     -45.723 -10.884 -33.467  0.00  0.00    +0.000 C 
ATOM      2  C   UNL     1     -45.478 -10.714 -34.980  0.00  0.00    +0.000 C 
ATOM      3  C   UNL     1     -43.089 -10.395 -34.260  0.00  0.00    +0.000 C 
ATOM      4  C   UNL     1     -43.498 -10.665 -32.847  0.00  0.00    +0.000 C 
ATOM      5  C   UNL     1     -43.764  -9.845 -36.609  0.00  0.00    +0.000 C 
ATOM      6  N   UNL     1     -44.097 -10.322 -35.274  0.00  0.00    +0.000 N 
ATOM      7  O   UNL     1     -41.881 -10.170 -34.530  0.00  0.00    +0.000 OA
ATOM      8  O   UNL     1     -44.635 -11.502 -32.797  0.00  0.00    +0.000 OA
ENDROOT
BRANCH   1  13
ATOM      9  C   UNL     1     -46.953  -3.537 -33.626  0.00  0.00    +0.000 C 
ATOM     10  C   UNL     1     -46.844  -4.881 -32.995  0.00  0.00    +0.000 A 
ATOM     11  C   UNL     1     -46.985  -5.104 -31.629  0.00  0.00    +0.000 A 
ATOM     12  C   UNL     1     -46.531  -7.101 -32.964  0.00  0.00    +0.000 A 
ATOM     13  C   UNL     1     -46.209  -9.634 -32.790  0.00  0.00    +0.000 C 
ATOM     14  C   UNL     1     -47.259  -4.075 -30.589  0.00  0.00    +0.000 C 
ATOM     15  S   UNL     1     -46.782  -6.745 -31.332  0.00  0.00    +0.000 S 
ATOM     16  N   UNL     1     -46.588  -5.993 -33.734  0.00  0.00    +0.000 NA
ATOM     17  N   UNL     1     -46.230  -8.391 -33.509  0.00  0.00    +0.000 NA
ATOM     18  O   UNL     1     -46.582  -9.696 -31.591  0.00  0.00    +0.000 OA
ENDBRANCH   1  13
BRANCH   2  19
ATOM     19  C   UNL     1     -45.844 -11.966 -35.719  0.00  0.00    +0.000 A 
ATOM     20  C   UNL     1     -47.002 -11.981 -36.505  0.00  0.00    +0.000 A 
ATOM     21  C   UNL     1     -47.356 -13.132 -37.215  0.00  0.00    +0.000 A 
ATOM     22  C   UNL     1     -46.550 -14.274 -37.143  0.00  0.00    +0.000 A 
ATOM     23  C   UNL     1     -45.391 -14.262 -36.362  0.00  0.00    +0.000 A 
ATOM     24  C   UNL     1     -45.036 -13.111 -35.653  0.00  0.00    +0.000 A 
ATOM     25  F   UNL     1     -46.894 -15.389 -37.829  0.00  0.00    +0.000 F 
ENDBRANCH   2  19
TORSDOF 2
ENDMDL
MODEL 3
REMARK VINA RESULT:      -5.9      3.417      4.363
REMARK  Name = ZINC000096182866 ZINC96182866 PubChem-97458158
REMARK  2 active torsions:
REMARK  status: ('A' for Active; 'I' for Inactive)
REMARK    1  A    between atoms: C_5  and  C_6
REMARK    2  A    between atoms: C_7  and  C_11
REMARK                            x       y       z     vdW  Elec       q    Type
REMARK                         _______ _______ _______ _____ _____    ______ ____
ROOT
ATOM      1  C   UNL     1     -46.056 -14.566 -25.908  0.00  0.00    +0.000 C 
ATOM      2  C   UNL     1     -44.692 -15.284 -25.868  0.00  0.00    +0.000 C 
ATOM      3  C   UNL     1     -44.355 -13.904 -23.793  0.00  0.00    +0.000 C 
ATOM      4  C   UNL     1     -45.744 -13.369 -23.946  0.00  0.00    +0.000 C 
ATOM      5  C   UNL     1     -42.413 -15.120 -24.805  0.00  0.00    +0.000 C 
ATOM      6  N   UNL     1     -43.825 -14.763 -24.808  0.00  0.00    +0.000 N 
ATOM      7  O   UNL     1     -43.648 -13.542 -22.816  0.00  0.00    +0.000 OA
ATOM      8  O   UNL     1     -46.574 -14.294 -24.616  0.00  0.00    +0.000 OA
ENDROOT
BRANCH   1  13
ATOM      9  C   UNL     1     -42.438  -9.493 -29.994  0.00  0.00    +0.000 C 
ATOM     10  C   UNL     1     -43.619 -10.106 -29.328  0.00  0.00    +0.000 A 
ATOM     11  C   UNL     1     -44.882  -9.522 -29.308  0.00  0.00    +0.000 A 
ATOM     12  C   UNL     1     -44.714 -11.666 -28.147  0.00  0.00    +0.000 A 
ATOM     13  C   UNL     1     -46.085 -13.377 -26.827  0.00  0.00    +0.000 C 
ATOM     14  C   UNL     1     -45.265  -8.224 -29.928  0.00  0.00    +0.000 C 
ATOM     15  S   UNL     1     -45.921 -10.525 -28.450  0.00  0.00    +0.000 S 
ATOM     16  N   UNL     1     -43.529 -11.297 -28.678  0.00  0.00    +0.000 NA
ATOM     17  N   UNL     1     -44.862 -12.865 -27.376  0.00  0.00    +0.000 NA
ATOM     18  O   UNL     1     -47.190 -12.840 -27.091  0.00  0.00    +0.000 OA
ENDBRANCH   1  13
BRANCH   2  19
ATOM     19  C   UNL     1     -44.877 -16.765 -25.724  0.00  0.00    +0.000 A 
ATOM     20  C   UNL     1     -44.058 -17.630 -26.459  0.00  0.00    +0.000 A 
ATOM     21  C   UNL     1     -44.203 -19.015 -26.329  0.00  0.00    +0.000 A 
ATOM     22  C   UNL     1     -45.166 -19.540 -25.462  0.00  0.00    +0.000 A 
ATOM     23  C   UNL     1     -45.984 -18.679 -24.722  0.00  0.00    +0.000 A 
ATOM     24  C   UNL     1     -45.839 -17.295 -24.851  0.00  0.00    +0.000 A 
ATOM     25  F   UNL     1     -45.308 -20.880 -25.338  0.00  0.00    +0.000 F 
ENDBRANCH   2  19
TORSDOF 2
ENDMDL
