MODEL 1
REMARK VINA RESULT:      -6.2      0.000      0.000
REMARK  Name = ZINC000030726767 ZINC30726767 PubChem-37870901
REMARK  7 active torsions:
REMARK  status: ('A' for Active; 'I' for Inactive)
REMARK    1  A    between atoms: C_2  and  O_25
REMARK    2  A    between atoms: C_3  and  O_25
REMARK    3  A    between atoms: C_8  and  N_29
REMARK    4  A    between atoms: C_9  and  C_10
REMARK    5  A    between atoms: C_10  and  C_11
REMARK    6  A    between atoms: C_11  and  C_12
REMARK    7  A    between atoms: C_18  and  O_27
REMARK                            x       y       z     vdW  Elec       q    Type
REMARK                         _______ _______ _______ _____ _____    ______ ____
ROOT
ATOM      1  C   UNL     1     -43.385 -19.653 -22.097  0.00  0.00    +0.000 C 
ATOM      2  O   UNL     1     -42.883 -20.720 -22.537  0.00  0.00    +0.000 OA
ATOM      3  N   UNL     1     -43.908 -19.629 -20.762  0.00  0.00    +0.000 NA
ENDROOT
BRANCH   3   9
ATOM      4  C   UNL     1     -43.324 -17.683 -19.381  0.00  0.00    +0.000 A 
ATOM      5  C   UNL     1     -43.702 -16.535 -18.650  0.00  0.00    +0.000 A 
ATOM      6  C   UNL     1     -45.053 -16.213 -18.566  0.00  0.00    +0.000 A 
ATOM      7  C   UNL     1     -46.001 -16.972 -19.178  0.00  0.00    +0.000 A 
ATOM      8  C   UNL     1     -45.672 -18.108 -19.911  0.00  0.00    +0.000 A 
ATOM      9  C   UNL     1     -44.315 -18.480 -20.005  0.00  0.00    +0.000 A 
ATOM     10  C   UNL     1     -47.191 -15.296 -18.151  0.00  0.00    +0.000 C 
ATOM     11  C   UNL     1     -45.689 -15.070 -17.865  0.00  0.00    +0.000 C 
ATOM     12  C   UNL     1     -47.754 -14.108 -18.905  0.00  0.00    +0.000 C 
ATOM     13  O   UNL     1     -47.264 -16.465 -18.968  0.00  0.00    +0.000 OA
BRANCH   4  14
ATOM     14  O   UNL     1     -41.980 -18.054 -19.495  0.00  0.00    +0.000 OA
BRANCH  14  16
ATOM     15  C   UNL     1     -40.214 -18.184 -21.111  0.00  0.00    +0.000 C 
ATOM     16  C   UNL     1     -41.027 -17.279 -20.210  0.00  0.00    +0.000 C 
ENDBRANCH  14  16
ENDBRANCH   4  14
ENDBRANCH   3   9
BRANCH   1  17
ATOM     17  C   UNL     1     -43.491 -18.480 -23.015  0.00  0.00    +0.000 C 
BRANCH  17  18
ATOM     18  C   UNL     1     -44.878 -18.434 -23.632  0.00  0.00    +0.000 C 
BRANCH  18  19
ATOM     19  C   UNL     1     -44.979 -17.309 -24.621  0.00  0.00    +0.000 A 
ATOM     20  C   UNL     1     -45.425 -16.033 -24.191  0.00  0.00    +0.000 A 
ATOM     21  C   UNL     1     -45.476 -15.010 -25.149  0.00  0.00    +0.000 A 
ATOM     22  C   UNL     1     -45.159 -15.267 -26.453  0.00  0.00    +0.000 A 
ATOM     23  C   UNL     1     -44.621 -17.503 -25.986  0.00  0.00    +0.000 A 
ATOM     24  C   UNL     1     -44.116 -18.818 -26.474  0.00  0.00    +0.000 C 
ATOM     25  C   UNL     1     -45.875 -13.670 -25.166  0.00  0.00    +0.000 A 
ATOM     26  C   UNL     1     -45.177 -14.068 -28.644  0.00  0.00    +0.000 C 
ATOM     27  C   UNL     1     -45.903 -15.827 -22.791  0.00  0.00    +0.000 C 
ATOM     28  N   UNL     1     -44.736 -16.480 -26.882  0.00  0.00    +0.000 NA
ATOM     29  N   UNL     1     -45.372 -14.181 -27.209  0.00  0.00    +0.000 N 
ATOM     30  N   UNL     1     -45.817 -13.201 -26.436  0.00  0.00    +0.000 NA
BRANCH  25  32
ATOM     31  C   UNL     1     -45.354 -12.123 -23.312  0.00  0.00    +0.000 C 
ATOM     32  O   UNL     1     -46.272 -12.865 -24.096  0.00  0.00    +0.000 OA
ENDBRANCH  25  32
ENDBRANCH  18  19
ENDBRANCH  17  18
ENDBRANCH   1  17
TORSDOF 7
ENDMDL
MODEL 2
REMARK VINA RESULT:      -6.1     10.923     14.648
REMARK  Name = ZINC000030726767 ZINC30726767 PubChem-37870901
REMARK  7 active torsions:
REMARK  status: ('A' for Active; 'I' for Inactive)
REMARK    1  A    between atoms: C_2  and  O_25
REMARK    2  A    between atoms: C_3  and  O_25
REMARK    3  A    between atoms: C_8  and  N_29
REMARK    4  A    between atoms: C_9  and  C_10
REMARK    5  A    between atoms: C_10  and  C_11
REMARK    6  A    between atoms: C_11  and  C_12
REMARK    7  A    between atoms: C_18  and  O_27
REMARK                            x       y       z     vdW  Elec       q    Type
REMARK                         _______ _______ _______ _____ _____    ______ ____
ROOT
ATOM      1  C   UNL     1     -46.459  -6.746 -26.497  0.00  0.00    +0.000 C 
ATOM      2  O   UNL     1     -46.992  -7.645 -25.798  0.00  0.00    +0.000 OA
ATOM      3  N   UNL     1     -46.018  -7.066 -27.824  0.00  0.00    +0.000 NA
ENDROOT
BRANCH   3   9
ATOM      4  C   UNL     1     -44.288  -6.280 -29.381  0.00  0.00    +0.000 A 
ATOM      5  C   UNL     1     -43.858  -5.406 -30.404  0.00  0.00    +0.000 A 
ATOM      6  C   UNL     1     -44.742  -4.436 -30.867  0.00  0.00    +0.000 A 
ATOM      7  C   UNL     1     -46.001  -4.326 -30.362  0.00  0.00    +0.000 A 
ATOM      8  C   UNL     1     -46.465  -5.169 -29.357  0.00  0.00    +0.000 A 
ATOM      9  C   UNL     1     -45.594  -6.153 -28.847  0.00  0.00    +0.000 A 
ATOM     10  C   UNL     1     -45.875  -2.661 -31.941  0.00  0.00    +0.000 C 
ATOM     11  C   UNL     1     -44.526  -3.416 -31.922  0.00  0.00    +0.000 C 
ATOM     12  C   UNL     1     -46.509  -2.781 -33.312  0.00  0.00    +0.000 C 
ATOM     13  O   UNL     1     -46.699  -3.306 -30.969  0.00  0.00    +0.000 OA
BRANCH   4  14
ATOM     14  O   UNL     1     -43.439  -7.272 -28.877  0.00  0.00    +0.000 OA
BRANCH  14  16
ATOM     15  C   UNL     1     -42.153  -6.396 -27.054  0.00  0.00    +0.000 C 
ATOM     16  C   UNL     1     -42.114  -7.001 -28.441  0.00  0.00    +0.000 C 
ENDBRANCH  14  16
ENDBRANCH   4  14
ENDBRANCH   3   9
BRANCH   1  17
ATOM     17  C   UNL     1     -46.232  -5.403 -25.886  0.00  0.00    +0.000 C 
BRANCH  17  18
ATOM     18  C   UNL     1     -47.546  -4.848 -25.364  0.00  0.00    +0.000 C 
BRANCH  18  19
ATOM     19  C   UNL     1     -47.309  -3.942 -24.191  0.00  0.00    +0.000 A 
ATOM     20  C   UNL     1     -47.100  -4.498 -22.903  0.00  0.00    +0.000 A 
ATOM     21  C   UNL     1     -46.857  -3.609 -21.847  0.00  0.00    +0.000 A 
ATOM     22  C   UNL     1     -46.880  -2.259 -22.059  0.00  0.00    +0.000 A 
ATOM     23  C   UNL     1     -47.279  -2.527 -24.356  0.00  0.00    +0.000 A 
ATOM     24  C   UNL     1     -47.460  -1.901 -25.697  0.00  0.00    +0.000 C 
ATOM     25  C   UNL     1     -46.647  -3.721 -20.469  0.00  0.00    +0.000 A 
ATOM     26  C   UNL     1     -46.719  -0.160 -20.715  0.00  0.00    +0.000 C 
ATOM     27  C   UNL     1     -47.227  -5.970 -22.682  0.00  0.00    +0.000 C 
ATOM     28  N   UNL     1     -47.083  -1.711 -23.281  0.00  0.00    +0.000 NA
ATOM     29  N   UNL     1     -46.724  -1.601 -20.902  0.00  0.00    +0.000 N 
ATOM     30  N   UNL     1     -46.588  -2.482 -19.922  0.00  0.00    +0.000 NA
BRANCH  25  32
ATOM     31  C   UNL     1     -47.186  -5.083 -18.479  0.00  0.00    +0.000 C 
ATOM     32  O   UNL     1     -46.497  -4.877 -19.701  0.00  0.00    +0.000 OA
ENDBRANCH  25  32
ENDBRANCH  18  19
ENDBRANCH  17  18
ENDBRANCH   1  17
TORSDOF 7
ENDMDL
MODEL 3
REMARK VINA RESULT:      -6.0     10.988     16.671
REMARK  Name = ZINC000030726767 ZINC30726767 PubChem-37870901
REMARK  7 active torsions:
REMARK  status: ('A' for Active; 'I' for Inactive)
REMARK    1  A    between atoms: C_2  and  O_25
REMARK    2  A    between atoms: C_3  and  O_25
REMARK    3  A    between atoms: C_8  and  N_29
REMARK    4  A    between atoms: C_9  and  C_10
REMARK    5  A    between atoms: C_10  and  C_11
REMARK    6  A    between atoms: C_11  and  C_12
REMARK    7  A    between atoms: C_18  and  O_27
REMARK                            x       y       z     vdW  Elec       q    Type
REMARK                         _______ _______ _______ _____ _____    ______ ____
ROOT
ATOM      1  C   UNL     1     -46.166  -2.917 -33.138  0.00  0.00    +0.000 C 
ATOM      2  O   UNL     1     -47.348  -2.848 -33.564  0.00  0.00    +0.000 OA
ATOM      3  N   UNL     1     -45.099  -2.438 -33.968  0.00  0.00    +0.000 NA
ENDROOT
BRANCH   3   9
ATOM      4  C   UNL     1     -42.808  -3.292 -33.725  0.00  0.00    +0.000 A 
ATOM      5  C   UNL     1     -41.452  -3.098 -33.382  0.00  0.00    +0.000 A 
ATOM      6  C   UNL     1     -41.054  -1.848 -32.921  0.00  0.00    +0.000 A 
ATOM      7  C   UNL     1     -41.938  -0.820 -32.808  0.00  0.00    +0.000 A 
ATOM      8  C   UNL     1     -43.281  -0.968 -33.138  0.00  0.00    +0.000 A 
ATOM      9  C   UNL     1     -43.729  -2.225 -33.592  0.00  0.00    +0.000 A 
ATOM     10  C   UNL     1     -39.941   0.069 -32.100  0.00  0.00    +0.000 C 
ATOM     11  C   UNL     1     -39.700  -1.403 -32.505  0.00  0.00    +0.000 C 
ATOM     12  C   UNL     1     -39.096   0.982 -32.966  0.00  0.00    +0.000 C 
ATOM     13  O   UNL     1     -41.326   0.321 -32.340  0.00  0.00    +0.000 OA
BRANCH   4  14
ATOM     14  O   UNL     1     -43.263  -4.531 -34.192  0.00  0.00    +0.000 OA
BRANCH  14  16
ATOM     15  C   UNL     1     -43.057  -6.332 -32.625  0.00  0.00    +0.000 C 
ATOM     16  C   UNL     1     -42.577  -5.749 -33.935  0.00  0.00    +0.000 C 
ENDBRANCH  14  16
ENDBRANCH   4  14
ENDBRANCH   3   9
BRANCH   1  17
ATOM     17  C   UNL     1     -45.917  -3.572 -31.819  0.00  0.00    +0.000 C 
BRANCH  17  18
ATOM     18  C   UNL     1     -47.186  -4.253 -31.337  0.00  0.00    +0.000 C 
BRANCH  18  19
ATOM     19  C   UNL     1     -46.865  -5.564 -30.680  0.00  0.00    +0.000 A 
ATOM     20  C   UNL     1     -46.588  -6.702 -31.480  0.00  0.00    +0.000 A 
ATOM     21  C   UNL     1     -46.268  -7.895 -30.816  0.00  0.00    +0.000 A 
ATOM     22  C   UNL     1     -46.283  -7.954 -29.451  0.00  0.00    +0.000 A 
ATOM     23  C   UNL     1     -46.824  -5.678 -29.261  0.00  0.00    +0.000 A 
ATOM     24  C   UNL     1     -47.076  -4.499 -28.382  0.00  0.00    +0.000 C 
ATOM     25  C   UNL     1     -45.977  -9.209 -31.198  0.00  0.00    +0.000 A 
ATOM     26  C   UNL     1     -46.011  -9.671 -27.658  0.00  0.00    +0.000 C 
ATOM     27  C   UNL     1     -46.723  -6.637 -32.966  0.00  0.00    +0.000 C 
ATOM     28  N   UNL     1     -46.551  -6.878 -28.672  0.00  0.00    +0.000 NA
ATOM     29  N   UNL     1     -46.048  -9.205 -29.033  0.00  0.00    +0.000 N 
ATOM     30  N   UNL     1     -45.867  -9.983 -30.091  0.00  0.00    +0.000 NA
BRANCH  25  32
ATOM     31  C   UNL     1     -45.626 -11.107 -32.738  0.00  0.00    +0.000 C 
ATOM     32  O   UNL     1     -45.799  -9.724 -32.483  0.00  0.00    +0.000 OA
ENDBRANCH  25  32
ENDBRANCH  18  19
ENDBRANCH  17  18
ENDBRANCH   1  17
TORSDOF 7
ENDMDL
