MODEL 1
REMARK VINA RESULT:      -7.1      0.000      0.000
REMARK  Name = ZINC000002155366 PubChem-1804311
REMARK  7 active torsions:
REMARK  status: ('A' for Active; 'I' for Inactive)
REMARK    1  A    between atoms: C_2  and  C_3
REMARK    2  A    between atoms: C_3  and  C_4
REMARK    3  A    between atoms: C_4  and  CA_5
REMARK    4  A    between atoms: CA_5  and  C_6
REMARK    5  A    between atoms: CA_5  and  N_32
REMARK    6  A    between atoms: C_7  and  C_8
REMARK    7  A    between atoms: C_8  and  C_9
REMARK                            x       y       z     vdW  Elec       q    Type
REMARK                         _______ _______ _______ _____ _____    ______ ____
ROOT
ATOM      1  C   UNL     1     -46.346  -4.442 -32.092  0.00  0.00    +0.000 A 
ATOM      2  C   UNL     1     -46.399  -5.847 -32.087  0.00  0.00    +0.000 A 
ATOM      3  C   UNL     1     -46.417  -6.525 -30.858  0.00  0.00    +0.000 A 
ATOM      4  C   UNL     1     -46.384  -5.758 -29.654  0.00  0.00    +0.000 A 
ATOM      5  C   UNL     1     -46.405  -6.402 -28.397  0.00  0.00    +0.000 A 
ATOM      6  C   UNL     1     -46.459  -7.794 -28.379  0.00  0.00    +0.000 A 
ATOM      7  C   UNL     1     -46.482  -8.529 -29.540  0.00  0.00    +0.000 A 
ATOM      8  C   UNL     1     -46.469  -7.935 -30.796  0.00  0.00    +0.000 A 
ATOM      9  C   UNL     1     -46.531  -9.846 -29.160  0.00  0.00    +0.000 A 
ATOM     10  C   UNL     1     -46.560  -9.825 -27.777  0.00  0.00    +0.000 A 
ATOM     11  C   UNL     1     -46.607 -11.064 -26.940  0.00  0.00    +0.000 C 
ATOM     12  C   UNL     1     -47.100 -12.256 -27.776  0.00  0.00    +0.000 C 
ATOM     13  C   UNL     1     -46.382 -12.322 -29.134  0.00  0.00    +0.000 C 
ATOM     14  C   UNL     1     -46.683 -11.082 -29.988  0.00  0.00    +0.000 C 
ATOM     15  C   UNL     1     -46.380  -5.625 -27.124  0.00  0.00    +0.000 C 
ATOM     16  C   UNL     1     -46.315  -3.760 -30.864  0.00  0.00    +0.000 A 
ATOM     17  C   UNL     1     -46.430  -6.609 -33.378  0.00  0.00    +0.000 C 
ATOM     18  O   UNL     1     -46.503  -8.586 -27.327  0.00  0.00    +0.000 OA
ATOM     19  O   UNL     1     -46.334  -4.431 -29.716  0.00  0.00    +0.000 OA
ATOM     20  O   UNL     1     -46.268  -2.501 -30.836  0.00  0.00    +0.000 OA
ENDROOT
BRANCH   1  21
ATOM     21  C   UNL     1     -46.357  -3.673 -33.382  0.00  0.00    +0.000 C 
BRANCH  21  22
ATOM     22  C   UNL     1     -45.081  -2.922 -33.551  0.00  0.00    +0.000 C 
ATOM     23  O   UNL     1     -45.109  -1.726 -33.949  0.00  0.00    +0.000 OA
ATOM     24  N   UNL     1     -43.837  -3.573 -33.290  0.00  0.00    +0.000 NA
BRANCH  24  25
ATOM     25  CA  UNL     1     -42.559  -2.905 -33.488  0.00  0.00    +0.000 C 
BRANCH  25  26
ATOM     26  C   UNL     1     -41.501  -3.918 -33.774  0.00  0.00    +0.000 C 
ATOM     27  OXT UNL     1     -41.795  -5.016 -34.316  0.00  0.00    +0.000 OA
ATOM     28  O   UNL     1     -40.180  -3.643 -33.446  0.00  0.00    +0.000 OA
ENDBRANCH  25  26
BRANCH  25  29
ATOM     29  C   UNL     1     -42.192  -2.087 -32.257  0.00  0.00    +0.000 C 
BRANCH  29  30
ATOM     30  C   UNL     1     -42.089  -0.604 -32.588  0.00  0.00    +0.000 C 
BRANCH  30  32
ATOM     31  C   UNL     1     -39.843   0.461 -32.806  0.00  0.00    +0.000 C 
ATOM     32  C   UNL     1     -40.943   0.060 -31.842  0.00  0.00    +0.000 C 
ENDBRANCH  30  32
ENDBRANCH  29  30
ENDBRANCH  25  29
ENDBRANCH  24  25
ENDBRANCH  21  22
ENDBRANCH   1  21
TORSDOF 7
ENDMDL
MODEL 2
REMARK VINA RESULT:      -7.1      9.634     16.206
REMARK  Name = ZINC000002155366 PubChem-1804311
REMARK  7 active torsions:
REMARK  status: ('A' for Active; 'I' for Inactive)
REMARK    1  A    between atoms: C_2  and  C_3
REMARK    2  A    between atoms: C_3  and  C_4
REMARK    3  A    between atoms: C_4  and  CA_5
REMARK    4  A    between atoms: CA_5  and  C_6
REMARK    5  A    between atoms: CA_5  and  N_32
REMARK    6  A    between atoms: C_7  and  C_8
REMARK    7  A    between atoms: C_8  and  C_9
REMARK                            x       y       z     vdW  Elec       q    Type
REMARK                         _______ _______ _______ _____ _____    ______ ____
ROOT
ATOM      1  C   UNL     1     -43.075 -19.527 -24.512  0.00  0.00    +0.000 A 
ATOM      2  C   UNL     1     -43.975 -18.459 -24.668  0.00  0.00    +0.000 A 
ATOM      3  C   UNL     1     -43.820 -17.588 -25.758  0.00  0.00    +0.000 A 
ATOM      4  C   UNL     1     -42.748 -17.824 -26.672  0.00  0.00    +0.000 A 
ATOM      5  C   UNL     1     -42.560 -16.973 -27.784  0.00  0.00    +0.000 A 
ATOM      6  C   UNL     1     -43.447 -15.911 -27.951  0.00  0.00    +0.000 A 
ATOM      7  C   UNL     1     -44.472 -15.683 -27.063  0.00  0.00    +0.000 A 
ATOM      8  C   UNL     1     -44.696 -16.499 -25.961  0.00  0.00    +0.000 A 
ATOM      9  C   UNL     1     -45.136 -14.574 -27.521  0.00  0.00    +0.000 A 
ATOM     10  C   UNL     1     -44.481 -14.211 -28.684  0.00  0.00    +0.000 A 
ATOM     11  C   UNL     1     -44.877 -13.030 -29.513  0.00  0.00    +0.000 C 
ATOM     12  C   UNL     1     -46.322 -12.614 -29.193  0.00  0.00    +0.000 C 
ATOM     13  C   UNL     1     -46.565 -12.552 -27.677  0.00  0.00    +0.000 C 
ATOM     14  C   UNL     1     -46.393 -13.932 -27.025  0.00  0.00    +0.000 C 
ATOM     15  C   UNL     1     -41.455 -17.200 -28.759  0.00  0.00    +0.000 C 
ATOM     16  C   UNL     1     -42.046 -19.691 -25.455  0.00  0.00    +0.000 A 
ATOM     17  C   UNL     1     -45.084 -18.252 -23.680  0.00  0.00    +0.000 C 
ATOM     18  O   UNL     1     -43.463 -15.016 -28.918  0.00  0.00    +0.000 OA
ATOM     19  O   UNL     1     -41.925 -18.849 -26.477  0.00  0.00    +0.000 OA
ATOM     20  O   UNL     1     -41.224 -20.639 -25.343  0.00  0.00    +0.000 OA
ENDROOT
BRANCH   1  21
ATOM     21  C   UNL     1     -43.222 -20.503 -23.379  0.00  0.00    +0.000 C 
BRANCH  21  22
ATOM     22  C   UNL     1     -42.677 -19.923 -22.119  0.00  0.00    +0.000 C 
ATOM     23  O   UNL     1     -41.517 -19.431 -22.109  0.00  0.00    +0.000 OA
ATOM     24  N   UNL     1     -43.462 -19.960 -20.927  0.00  0.00    +0.000 NA
BRANCH  24  25
ATOM     25  CA  UNL     1     -42.961 -19.457 -19.656  0.00  0.00    +0.000 C 
BRANCH  25  26
ATOM     26  C   UNL     1     -42.354 -20.575 -18.876  0.00  0.00    +0.000 C 
ATOM     27  OXT UNL     1     -41.143 -20.535 -18.536  0.00  0.00    +0.000 OA
ATOM     28  O   UNL     1     -43.136 -21.664 -18.516  0.00  0.00    +0.000 OA
ENDBRANCH  25  26
BRANCH  25  29
ATOM     29  C   UNL     1     -44.087 -18.806 -18.863  0.00  0.00    +0.000 C 
BRANCH  29  30
ATOM     30  C   UNL     1     -44.758 -17.696 -19.662  0.00  0.00    +0.000 C 
BRANCH  30  32
ATOM     31  C   UNL     1     -46.767 -19.169 -19.810  0.00  0.00    +0.000 C 
ATOM     32  C   UNL     1     -46.273 -17.759 -19.550  0.00  0.00    +0.000 C 
ENDBRANCH  30  32
ENDBRANCH  29  30
ENDBRANCH  25  29
ENDBRANCH  24  25
ENDBRANCH  21  22
ENDBRANCH   1  21
TORSDOF 7
ENDMDL
MODEL 3
REMARK VINA RESULT:      -6.9      1.885      3.060
REMARK  Name = ZINC000002155366 PubChem-1804311
REMARK  7 active torsions:
REMARK  status: ('A' for Active; 'I' for Inactive)
REMARK    1  A    between atoms: C_2  and  C_3
REMARK    2  A    between atoms: C_3  and  C_4
REMARK    3  A    between atoms: C_4  and  CA_5
REMARK    4  A    between atoms: CA_5  and  C_6
REMARK    5  A    between atoms: CA_5  and  N_32
REMARK    6  A    between atoms: C_7  and  C_8
REMARK    7  A    between atoms: C_8  and  C_9
REMARK                            x       y       z     vdW  Elec       q    Type
REMARK                         _______ _______ _______ _____ _____    ______ ____
ROOT
ATOM      1  C   UNL     1     -47.010  -4.996 -29.741  0.00  0.00    +0.000 A 
ATOM      2  C   UNL     1     -46.891  -6.358 -30.067  0.00  0.00    +0.000 A 
ATOM      3  C   UNL     1     -46.731  -7.296 -29.035  0.00  0.00    +0.000 A 
ATOM      4  C   UNL     1     -46.698  -6.829 -27.687  0.00  0.00    +0.000 A 
ATOM      5  C   UNL     1     -46.544  -7.741 -26.620  0.00  0.00    +0.000 A 
ATOM      6  C   UNL     1     -46.426  -9.095 -26.930  0.00  0.00    +0.000 A 
ATOM      7  C   UNL     1     -46.449  -9.539 -28.231  0.00  0.00    +0.000 A 
ATOM      8  C   UNL     1     -46.606  -8.676 -29.309  0.00  0.00    +0.000 A 
ATOM      9  C   UNL     1     -46.308 -10.902 -28.173  0.00  0.00    +0.000 A 
ATOM     10  C   UNL     1     -46.232 -11.204 -26.825  0.00  0.00    +0.000 A 
ATOM     11  C   UNL     1     -46.063 -12.596 -26.306  0.00  0.00    +0.000 C 
ATOM     12  C   UNL     1     -46.470 -13.619 -27.378  0.00  0.00    +0.000 C 
ATOM     13  C   UNL     1     -45.857 -13.274 -28.744  0.00  0.00    +0.000 C 
ATOM     14  C   UNL     1     -46.372 -11.924 -29.264  0.00  0.00    +0.000 C 
ATOM     15  C   UNL     1     -46.514  -7.282 -25.201  0.00  0.00    +0.000 C 
ATOM     16  C   UNL     1     -46.967  -4.616 -28.388  0.00  0.00    +0.000 A 
ATOM     17  C   UNL     1     -46.929  -6.800 -31.500  0.00  0.00    +0.000 C 
ATOM     18  O   UNL     1     -46.291 -10.105 -26.096  0.00  0.00    +0.000 OA
ATOM     19  O   UNL     1     -46.815  -5.529 -27.433  0.00  0.00    +0.000 OA
ATOM     20  O   UNL     1     -47.072  -3.403 -28.063  0.00  0.00    +0.000 OA
ENDROOT
BRANCH   1  21
ATOM     21  C   UNL     1     -47.214  -3.960 -30.809  0.00  0.00    +0.000 C 
BRANCH  21  22
ATOM     22  C   UNL     1     -45.948  -3.216 -31.062  0.00  0.00    +0.000 C 
ATOM     23  O   UNL     1     -45.822  -2.036 -30.640  0.00  0.00    +0.000 OA
ATOM     24  N   UNL     1     -44.901  -3.837 -31.809  0.00  0.00    +0.000 NA
BRANCH  24  25
ATOM     25  CA  UNL     1     -43.664  -3.141 -32.131  0.00  0.00    +0.000 C 
BRANCH  25  26
ATOM     26  C   UNL     1     -43.680  -2.724 -33.564  0.00  0.00    +0.000 C 
ATOM     27  OXT UNL     1     -42.781  -3.116 -34.355  0.00  0.00    +0.000 OA
ATOM     28  O   UNL     1     -44.699  -1.905 -34.029  0.00  0.00    +0.000 OA
ENDBRANCH  25  26
BRANCH  25  29
ATOM     29  C   UNL     1     -42.464  -4.036 -31.852  0.00  0.00    +0.000 C 
BRANCH  29  30
ATOM     30  C   UNL     1     -42.900  -5.446 -31.474  0.00  0.00    +0.000 C 
BRANCH  30  32
ATOM     31  C   UNL     1     -43.174  -7.114 -29.637  0.00  0.00    +0.000 C 
ATOM     32  C   UNL     1     -42.646  -5.740 -30.004  0.00  0.00    +0.000 C 
ENDBRANCH  30  32
ENDBRANCH  29  30
ENDBRANCH  25  29
ENDBRANCH  24  25
ENDBRANCH  21  22
ENDBRANCH   1  21
TORSDOF 7
ENDMDL
