MODEL 1
REMARK VINA RESULT:      -7.3      0.000      0.000
REMARK  Name = ZINC000020924276 ZINC20924276 PubChem-92705262
REMARK  4 active torsions:
REMARK  status: ('A' for Active; 'I' for Inactive)
REMARK    1  A    between atoms: C_5  and  C_8
REMARK    2  A    between atoms: C_12  and  C_13
REMARK    3  A    between atoms: C_15  and  O_24
REMARK    4  A    between atoms: C_17  and  O_23
REMARK                            x       y       z     vdW  Elec       q    Type
REMARK                         _______ _______ _______ _____ _____    ______ ____
ROOT
ATOM      1  C   UNL     1     -47.090  -3.933 -31.647  0.00  0.00    +0.000 C 
ATOM      2  C   UNL     1     -46.999  -5.265 -32.404  0.00  0.00    +0.000 C 
ATOM      3  C   UNL     1     -46.059  -6.206 -31.722  0.00  0.00    +0.000 C 
ATOM      4  C   UNL     1     -46.537  -5.094 -29.565  0.00  0.00    +0.000 C 
ATOM      5  C   UNL     1     -47.129  -4.205 -27.244  0.00  0.00    +0.000 C 
ATOM      6  O   UNL     1     -45.436  -7.072 -32.388  0.00  0.00    +0.000 OA
ATOM      7  O   UNL     1     -47.700  -3.175 -27.699  0.00  0.00    +0.000 OA
ATOM      8  N   UNL     1     -45.896  -6.134 -30.307  0.00  0.00    +0.000 NA
ATOM      9  N   UNL     1     -47.114  -4.105 -30.188  0.00  0.00    +0.000 NA
ATOM     10  N   UNL     1     -46.546  -5.166 -28.135  0.00  0.00    +0.000 NA
ENDROOT
BRANCH   1  15
ATOM     11  C   UNL     1     -42.922  -0.218 -33.165  0.00  0.00    +0.000 C 
ATOM     12  C   UNL     1     -43.991  -1.177 -32.783  0.00  0.00    +0.000 A 
ATOM     13  C   UNL     1     -44.391  -2.171 -33.679  0.00  0.00    +0.000 A 
ATOM     14  C   UNL     1     -45.396  -3.073 -33.319  0.00  0.00    +0.000 A 
ATOM     15  C   UNL     1     -46.004  -2.985 -32.057  0.00  0.00    +0.000 A 
ATOM     16  C   UNL     1     -45.601  -1.986 -31.165  0.00  0.00    +0.000 A 
ATOM     17  C   UNL     1     -44.596  -1.083 -31.526  0.00  0.00    +0.000 A 
ENDBRANCH   1  15
BRANCH   5  18
ATOM     18  C   UNL     1     -47.063  -4.421 -25.788  0.00  0.00    +0.000 A 
ATOM     19  C   UNL     1     -46.727  -5.679 -25.274  0.00  0.00    +0.000 A 
ATOM     20  C   UNL     1     -46.661  -5.893 -23.888  0.00  0.00    +0.000 A 
ATOM     21  C   UNL     1     -46.934  -4.834 -23.017  0.00  0.00    +0.000 A 
ATOM     22  C   UNL     1     -47.270  -3.570 -23.513  0.00  0.00    +0.000 A 
ATOM     23  C   UNL     1     -47.332  -3.369 -24.901  0.00  0.00    +0.000 A 
BRANCH  22  25
ATOM     24  C   UNL     1     -46.679  -2.236 -21.517  0.00  0.00    +0.000 C 
ATOM     25  O   UNL     1     -47.535  -2.538 -22.609  0.00  0.00    +0.000 OA
ENDBRANCH  22  25
BRANCH  20  27
ATOM     26  C   UNL     1     -47.027  -7.718 -22.259  0.00  0.00    +0.000 C 
ATOM     27  O   UNL     1     -46.329  -7.141 -23.354  0.00  0.00    +0.000 OA
ENDBRANCH  20  27
ENDBRANCH   5  18
TORSDOF 4
ENDMDL
MODEL 2
REMARK VINA RESULT:      -7.1      0.520      2.316
REMARK  Name = ZINC000020924276 ZINC20924276 PubChem-92705262
REMARK  4 active torsions:
REMARK  status: ('A' for Active; 'I' for Inactive)
REMARK    1  A    between atoms: C_5  and  C_8
REMARK    2  A    between atoms: C_12  and  C_13
REMARK    3  A    between atoms: C_15  and  O_24
REMARK    4  A    between atoms: C_17  and  O_23
REMARK                            x       y       z     vdW  Elec       q    Type
REMARK                         _______ _______ _______ _____ _____    ______ ____
ROOT
ATOM      1  C   UNL     1     -47.012  -3.869 -31.746  0.00  0.00    +0.000 C 
ATOM      2  C   UNL     1     -47.006  -5.181 -32.543  0.00  0.00    +0.000 C 
ATOM      3  C   UNL     1     -46.125  -6.199 -31.894  0.00  0.00    +0.000 C 
ATOM      4  C   UNL     1     -46.527  -5.124 -29.702  0.00  0.00    +0.000 C 
ATOM      5  C   UNL     1     -47.056  -4.270 -27.353  0.00  0.00    +0.000 C 
ATOM      6  O   UNL     1     -45.558  -7.081 -32.588  0.00  0.00    +0.000 OA
ATOM      7  O   UNL     1     -47.562  -3.194 -27.774  0.00  0.00    +0.000 OA
ATOM      8  N   UNL     1     -45.954  -6.179 -30.479  0.00  0.00    +0.000 NA
ATOM      9  N   UNL     1     -47.042  -4.084 -30.293  0.00  0.00    +0.000 NA
ATOM     10  N   UNL     1     -46.536  -5.239 -28.275  0.00  0.00    +0.000 NA
ENDROOT
BRANCH   1  15
ATOM     11  C   UNL     1     -42.632  -0.370 -33.180  0.00  0.00    +0.000 C 
ATOM     12  C   UNL     1     -43.755  -1.274 -32.819  0.00  0.00    +0.000 A 
ATOM     13  C   UNL     1     -44.107  -2.325 -33.670  0.00  0.00    +0.000 A 
ATOM     14  C   UNL     1     -45.163  -3.176 -33.329  0.00  0.00    +0.000 A 
ATOM     15  C   UNL     1     -45.870  -2.979 -32.133  0.00  0.00    +0.000 A 
ATOM     16  C   UNL     1     -45.515  -1.923 -31.287  0.00  0.00    +0.000 A 
ATOM     17  C   UNL     1     -44.459  -1.072 -31.628  0.00  0.00    +0.000 A 
ENDBRANCH   1  15
BRANCH   5  18
ATOM     18  C   UNL     1     -46.999  -4.534 -25.905  0.00  0.00    +0.000 A 
ATOM     19  C   UNL     1     -47.287  -3.515 -24.988  0.00  0.00    +0.000 A 
ATOM     20  C   UNL     1     -47.235  -3.759 -23.607  0.00  0.00    +0.000 A 
ATOM     21  C   UNL     1     -46.892  -5.033 -23.147  0.00  0.00    +0.000 A 
ATOM     22  C   UNL     1     -46.600  -6.062 -24.048  0.00  0.00    +0.000 A 
ATOM     23  C   UNL     1     -46.656  -5.807 -25.427  0.00  0.00    +0.000 A 
BRANCH  22  25
ATOM     24  C   UNL     1     -46.054  -8.449 -24.389  0.00  0.00    +0.000 C 
ATOM     25  O   UNL     1     -46.261  -7.323 -23.549  0.00  0.00    +0.000 OA
ENDBRANCH  22  25
BRANCH  20  27
ATOM     26  C   UNL     1     -46.811  -2.623 -21.450  0.00  0.00    +0.000 C 
ATOM     27  O   UNL     1     -47.519  -2.756 -22.675  0.00  0.00    +0.000 OA
ENDBRANCH  20  27
ENDBRANCH   5  18
TORSDOF 4
ENDMDL
MODEL 3
REMARK VINA RESULT:      -7.0      1.640      3.061
REMARK  Name = ZINC000020924276 ZINC20924276 PubChem-92705262
REMARK  4 active torsions:
REMARK  status: ('A' for Active; 'I' for Inactive)
REMARK    1  A    between atoms: C_5  and  C_8
REMARK    2  A    between atoms: C_12  and  C_13
REMARK    3  A    between atoms: C_15  and  O_24
REMARK    4  A    between atoms: C_17  and  O_23
REMARK                            x       y       z     vdW  Elec       q    Type
REMARK                         _______ _______ _______ _____ _____    ______ ____
ROOT
ATOM      1  C   UNL     1     -46.485  -2.978 -32.581  0.00  0.00    +0.000 C 
ATOM      2  C   UNL     1     -46.751  -3.957 -33.733  0.00  0.00    +0.000 C 
ATOM      3  C   UNL     1     -46.131  -5.290 -33.460  0.00  0.00    +0.000 C 
ATOM      4  C   UNL     1     -46.333  -4.865 -31.031  0.00  0.00    +0.000 C 
ATOM      5  C   UNL     1     -46.710  -4.666 -28.512  0.00  0.00    +0.000 C 
ATOM      6  O   UNL     1     -45.759  -6.022 -34.411  0.00  0.00    +0.000 OA
ATOM      7  O   UNL     1     -46.957  -3.430 -28.568  0.00  0.00    +0.000 OA
ATOM      8  N   UNL     1     -45.990  -5.735 -32.113  0.00  0.00    +0.000 NA
ATOM      9  N   UNL     1     -46.593  -3.610 -31.258  0.00  0.00    +0.000 NA
ATOM     10  N   UNL     1     -46.397  -5.401 -29.704  0.00  0.00    +0.000 NA
ENDROOT
BRANCH   1  15
ATOM     11  C   UNL     1     -41.430  -0.219 -33.149  0.00  0.00    +0.000 C 
ATOM     12  C   UNL     1     -42.725  -0.935 -33.008  0.00  0.00    +0.000 A 
ATOM     13  C   UNL     1     -42.962  -2.101 -33.740  0.00  0.00    +0.000 A 
ATOM     14  C   UNL     1     -44.180  -2.774 -33.607  0.00  0.00    +0.000 A 
ATOM     15  C   UNL     1     -45.166  -2.284 -32.737  0.00  0.00    +0.000 A 
ATOM     16  C   UNL     1     -44.925  -1.113 -32.009  0.00  0.00    +0.000 A 
ATOM     17  C   UNL     1     -43.706  -0.440 -32.143  0.00  0.00    +0.000 A 
ENDBRANCH   1  15
BRANCH   5  18
ATOM     18  C   UNL     1     -46.744  -5.361 -27.212  0.00  0.00    +0.000 A 
ATOM     19  C   UNL     1     -47.011  -4.648 -26.036  0.00  0.00    +0.000 A 
ATOM     20  C   UNL     1     -47.044  -5.303 -24.795  0.00  0.00    +0.000 A 
ATOM     21  C   UNL     1     -46.809  -6.679 -24.738  0.00  0.00    +0.000 A 
ATOM     22  C   UNL     1     -46.540  -7.406 -25.902  0.00  0.00    +0.000 A 
ATOM     23  C   UNL     1     -46.510  -6.741 -27.138  0.00  0.00    +0.000 A 
BRANCH  22  25
ATOM     24  C   UNL     1     -47.089  -9.741 -26.503  0.00  0.00    +0.000 C 
ATOM     25  O   UNL     1     -46.310  -8.781 -25.803  0.00  0.00    +0.000 OA
ENDBRANCH  22  25
BRANCH  20  27
ATOM     26  C   UNL     1     -47.261  -3.194 -23.520  0.00  0.00    +0.000 C 
ATOM     27  O   UNL     1     -47.309  -4.611 -23.609  0.00  0.00    +0.000 OA
ENDBRANCH  20  27
ENDBRANCH   5  18
TORSDOF 4
ENDMDL
