MODEL 1
REMARK VINA RESULT:      -6.1      0.000      0.000
REMARK  Name = ZINC000095989116 PubChem-97337050
REMARK  7 active torsions:
REMARK  status: ('A' for Active; 'I' for Inactive)
REMARK    1  A    between atoms: C_2  and  C_4
REMARK    2  A    between atoms: C_4  and  N_23
REMARK    3  A    between atoms: C_7  and  C_8
REMARK    4  A    between atoms: C_8  and  N_25
REMARK    5  A    between atoms: C_9  and  C_10
REMARK    6  A    between atoms: C_13  and  C_14
REMARK    7  A    between atoms: C_20  and  N_26
REMARK                            x       y       z     vdW  Elec       q    Type
REMARK                         _______ _______ _______ _____ _____    ______ ____
ROOT
ATOM      1  C   UNL     1     -44.821 -17.644 -25.987  0.00  0.00    +0.000 C 
ATOM      2  C   UNL     1     -43.625 -18.471 -26.477  0.00  0.00    +0.000 C 
ATOM      3  C   UNL     1     -42.479 -17.562 -26.281  0.00  0.00    +0.000 C 
ATOM      4  C   UNL     1     -44.291 -16.264 -25.550  0.00  0.00    +0.000 C 
ATOM      5  N   UNL     1     -42.854 -16.305 -25.744  0.00  0.00    +0.000 N 
ATOM      6  O   UNL     1     -41.289 -17.871 -26.551  0.00  0.00    +0.000 OA
ENDROOT
BRANCH   4   7
ATOM      7  C   UNL     1     -44.915 -15.172 -26.364  0.00  0.00    +0.000 A 
ATOM      8  C   UNL     1     -44.715 -15.097 -27.751  0.00  0.00    +0.000 A 
ATOM      9  C   UNL     1     -45.315 -14.075 -28.493  0.00  0.00    +0.000 A 
ATOM     10  C   UNL     1     -46.116 -13.121 -27.851  0.00  0.00    +0.000 A 
ATOM     11  C   UNL     1     -46.306 -13.191 -26.467  0.00  0.00    +0.000 A 
ATOM     12  C   UNL     1     -45.709 -14.214 -25.726  0.00  0.00    +0.000 A 
ATOM     13 CL   UNL     1     -46.890 -11.840 -28.764  0.00  0.00    +0.000 Cl
ATOM     14  F   UNL     1     -45.122 -14.023 -29.836  0.00  0.00    +0.000 F 
ENDBRANCH   4   7
BRANCH   1  15
ATOM     15  C   UNL     1     -45.495 -18.327 -24.843  0.00  0.00    +0.000 C 
ATOM     16  N   UNL     1     -45.103 -18.037 -23.499  0.00  0.00    +0.000 NA
ATOM     17  O   UNL     1     -46.396 -19.175 -25.076  0.00  0.00    +0.000 OA
BRANCH  16  18
ATOM     18  C   UNL     1     -45.738 -18.674 -22.358  0.00  0.00    +0.000 C 
BRANCH  18  21
ATOM     19  C   UNL     1     -43.812 -18.132 -19.370  0.00  0.00    +0.000 A 
ATOM     20  C   UNL     1     -43.263 -19.310 -19.853  0.00  0.00    +0.000 A 
ATOM     21  C   UNL     1     -44.793 -18.686 -21.203  0.00  0.00    +0.000 A 
ATOM     22  N   UNL     1     -44.779 -17.762 -20.226  0.00  0.00    +0.000 N 
ATOM     23  N   UNL     1     -43.884 -19.658 -21.003  0.00  0.00    +0.000 NA
BRANCH  22  24
ATOM     24  C   UNL     1     -45.618 -16.574 -20.123  0.00  0.00    +0.000 C 
BRANCH  24  26
ATOM     25  C   UNL     1     -45.418 -15.006 -18.215  0.00  0.00    +0.000 C 
ATOM     26  C   UNL     1     -46.018 -16.317 -18.678  0.00  0.00    +0.000 C 
ATOM     27  C   UNL     1     -47.525 -16.243 -18.552  0.00  0.00    +0.000 C 
ENDBRANCH  24  26
ENDBRANCH  22  24
ENDBRANCH  18  21
ENDBRANCH  16  18
ENDBRANCH   1  15
BRANCH   5  28
ATOM     28  C   UNL     1     -41.949 -15.230 -25.339  0.00  0.00    +0.000 C 
ATOM     29  C   UNL     1     -41.696 -14.274 -26.493  0.00  0.00    +0.000 C 
ATOM     30  C   UNL     1     -42.509 -14.480 -24.145  0.00  0.00    +0.000 C 
ENDBRANCH   5  28
TORSDOF 7
ENDMDL
MODEL 2
REMARK VINA RESULT:      -6.0     10.538     14.689
REMARK  Name = ZINC000095989116 PubChem-97337050
REMARK  7 active torsions:
REMARK  status: ('A' for Active; 'I' for Inactive)
REMARK    1  A    between atoms: C_2  and  C_4
REMARK    2  A    between atoms: C_4  and  N_23
REMARK    3  A    between atoms: C_7  and  C_8
REMARK    4  A    between atoms: C_8  and  N_25
REMARK    5  A    between atoms: C_9  and  C_10
REMARK    6  A    between atoms: C_13  and  C_14
REMARK    7  A    between atoms: C_20  and  N_26
REMARK                            x       y       z     vdW  Elec       q    Type
REMARK                         _______ _______ _______ _____ _____    ______ ____
ROOT
ATOM      1  C   UNL     1     -47.135  -5.527 -31.179  0.00  0.00    +0.000 C 
ATOM      2  C   UNL     1     -47.756  -4.584 -30.140  0.00  0.00    +0.000 C 
ATOM      3  C   UNL     1     -46.859  -4.722 -28.976  0.00  0.00    +0.000 C 
ATOM      4  C   UNL     1     -45.903  -6.193 -30.534  0.00  0.00    +0.000 C 
ATOM      5  N   UNL     1     -45.797  -5.633 -29.199  0.00  0.00    +0.000 N 
ATOM      6  O   UNL     1     -47.012  -4.091 -27.898  0.00  0.00    +0.000 OA
ENDROOT
BRANCH   4   7
ATOM      7  C   UNL     1     -46.068  -7.681 -30.483  0.00  0.00    +0.000 A 
ATOM      8  C   UNL     1     -45.051  -8.540 -30.926  0.00  0.00    +0.000 A 
ATOM      9  C   UNL     1     -45.223  -9.926 -30.860  0.00  0.00    +0.000 A 
ATOM     10  C   UNL     1     -46.415 -10.460 -30.352  0.00  0.00    +0.000 A 
ATOM     11  C   UNL     1     -47.433  -9.603 -29.920  0.00  0.00    +0.000 A 
ATOM     12  C   UNL     1     -47.259  -8.218 -29.983  0.00  0.00    +0.000 A 
ATOM     13 CL   UNL     1     -46.646 -12.195 -30.246  0.00  0.00    +0.000 Cl
ATOM     14  F   UNL     1     -44.225 -10.744 -31.282  0.00  0.00    +0.000 F 
ENDBRANCH   4   7
BRANCH   1  15
ATOM     15  C   UNL     1     -46.735  -4.769 -32.401  0.00  0.00    +0.000 C 
ATOM     16  N   UNL     1     -46.181  -3.456 -32.284  0.00  0.00    +0.000 NA
ATOM     17  O   UNL     1     -46.909  -5.289 -33.533  0.00  0.00    +0.000 OA
BRANCH  16  18
ATOM     18  C   UNL     1     -45.771  -2.687 -33.447  0.00  0.00    +0.000 C 
BRANCH  18  21
ATOM     19  C   UNL     1     -42.381  -1.553 -33.054  0.00  0.00    +0.000 A 
ATOM     20  C   UNL     1     -43.100  -0.486 -32.537  0.00  0.00    +0.000 A 
ATOM     21  C   UNL     1     -44.486  -1.987 -33.155  0.00  0.00    +0.000 A 
ATOM     22  N   UNL     1     -43.270  -2.480 -33.447  0.00  0.00    +0.000 N 
ATOM     23  N   UNL     1     -44.422  -0.760 -32.606  0.00  0.00    +0.000 NA
BRANCH  22  24
ATOM     24  C   UNL     1     -42.964  -3.776 -34.040  0.00  0.00    +0.000 C 
BRANCH  24  26
ATOM     25  C   UNL     1     -43.523  -6.091 -33.352  0.00  0.00    +0.000 C 
ATOM     26  C   UNL     1     -42.773  -4.834 -32.962  0.00  0.00    +0.000 C 
ATOM     27  C   UNL     1     -41.303  -5.164 -32.802  0.00  0.00    +0.000 C 
ENDBRANCH  24  26
ENDBRANCH  22  24
ENDBRANCH  18  21
ENDBRANCH  16  18
ENDBRANCH   1  15
BRANCH   5  28
ATOM     28  C   UNL     1     -44.687  -5.912 -28.289  0.00  0.00    +0.000 C 
ATOM     29  C   UNL     1     -44.981  -7.139 -27.440  0.00  0.00    +0.000 C 
ATOM     30  C   UNL     1     -43.395  -6.102 -29.060  0.00  0.00    +0.000 C 
ENDBRANCH   5  28
TORSDOF 7
ENDMDL
MODEL 3
REMARK VINA RESULT:      -6.0     12.277     15.212
REMARK  Name = ZINC000095989116 PubChem-97337050
REMARK  7 active torsions:
REMARK  status: ('A' for Active; 'I' for Inactive)
REMARK    1  A    between atoms: C_2  and  C_4
REMARK    2  A    between atoms: C_4  and  N_23
REMARK    3  A    between atoms: C_7  and  C_8
REMARK    4  A    between atoms: C_8  and  N_25
REMARK    5  A    between atoms: C_9  and  C_10
REMARK    6  A    between atoms: C_13  and  C_14
REMARK    7  A    between atoms: C_20  and  N_26
REMARK                            x       y       z     vdW  Elec       q    Type
REMARK                         _______ _______ _______ _____ _____    ______ ____
ROOT
ATOM      1  C   UNL     1     -46.681  -5.716 -32.654  0.00  0.00    +0.000 C 
ATOM      2  C   UNL     1     -47.124  -4.606 -33.616  0.00  0.00    +0.000 C 
ATOM      3  C   UNL     1     -46.211  -3.492 -33.294  0.00  0.00    +0.000 C 
ATOM      4  C   UNL     1     -45.529  -5.161 -31.792  0.00  0.00    +0.000 C 
ATOM      5  N   UNL     1     -45.295  -3.807 -32.260  0.00  0.00    +0.000 N 
ATOM      6  O   UNL     1     -46.234  -2.379 -33.881  0.00  0.00    +0.000 OA
ENDROOT
BRANCH   4   7
ATOM      7  C   UNL     1     -45.897  -5.174 -30.340  0.00  0.00    +0.000 A 
ATOM      8  C   UNL     1     -45.096  -5.831 -29.394  0.00  0.00    +0.000 A 
ATOM      9  C   UNL     1     -45.454  -5.823 -28.043  0.00  0.00    +0.000 A 
ATOM     10  C   UNL     1     -46.617  -5.157 -27.631  0.00  0.00    +0.000 A 
ATOM     11  C   UNL     1     -47.421  -4.511 -28.576  0.00  0.00    +0.000 A 
ATOM     12  C   UNL     1     -47.061  -4.517 -29.926  0.00  0.00    +0.000 A 
ATOM     13 CL   UNL     1     -47.077  -5.121 -25.939  0.00  0.00    +0.000 Cl
ATOM     14  F   UNL     1     -44.662  -6.453 -27.138  0.00  0.00    +0.000 F 
ENDBRANCH   4   7
BRANCH   1  15
ATOM     15  C   UNL     1     -46.226  -6.917 -33.416  0.00  0.00    +0.000 C 
ATOM     16  N   UNL     1     -45.459  -6.763 -34.612  0.00  0.00    +0.000 NA
ATOM     17  O   UNL     1     -46.543  -8.064 -33.004  0.00  0.00    +0.000 OA
BRANCH  16  18
ATOM     18  C   UNL     1     -44.990  -7.905 -35.379  0.00  0.00    +0.000 C 
BRANCH  18  21
ATOM     19  C   UNL     1     -47.189  -8.590 -38.140  0.00  0.00    +0.000 A 
ATOM     20  C   UNL     1     -46.408  -7.563 -38.646  0.00  0.00    +0.000 A 
ATOM     21  C   UNL     1     -45.745  -7.988 -36.663  0.00  0.00    +0.000 A 
ATOM     22  N   UNL     1     -46.765  -8.835 -36.890  0.00  0.00    +0.000 N 
ATOM     23  N   UNL     1     -45.504  -7.184 -37.715  0.00  0.00    +0.000 NA
BRANCH  22  24
ATOM     24  C   UNL     1     -47.291  -9.844 -35.979  0.00  0.00    +0.000 C 
BRANCH  24  26
ATOM     25  C   UNL     1     -46.089 -11.691 -34.845  0.00  0.00    +0.000 C 
ATOM     26  C   UNL     1     -46.585 -11.177 -36.181  0.00  0.00    +0.000 C 
ATOM     27  C   UNL     1     -47.536 -12.193 -36.780  0.00  0.00    +0.000 C 
ENDBRANCH  24  26
ENDBRANCH  22  24
ENDBRANCH  18  21
ENDBRANCH  16  18
ENDBRANCH   1  15
BRANCH   5  28
ATOM     28  C   UNL     1     -44.201  -2.962 -31.782  0.00  0.00    +0.000 C 
ATOM     29  C   UNL     1     -43.092  -2.878 -32.817  0.00  0.00    +0.000 C 
ATOM     30  C   UNL     1     -44.706  -1.574 -31.437  0.00  0.00    +0.000 C 
ENDBRANCH   5  28
TORSDOF 7
ENDMDL
