MODEL 1
REMARK VINA RESULT:      -6.4      0.000      0.000
REMARK  Name = ZINC000072335160 ZINC72335160 PubChem-95797839
REMARK  4 active torsions:
REMARK  status: ('A' for Active; 'I' for Inactive)
REMARK    1  A    between atoms: C_3  and  C_6
REMARK    2  A    between atoms: C_8  and  C_10
REMARK    3  A    between atoms: C_11  and  C_12
REMARK    4  A    between atoms: C_11  and  N_22
REMARK                            x       y       z     vdW  Elec       q    Type
REMARK                         _______ _______ _______ _____ _____    ______ ____
ROOT
ATOM      1  C   UNL     1     -46.406  -9.696 -29.680  0.00  0.00    +0.000 C 
ATOM      2  C   UNL     1     -46.834  -8.379 -30.336  0.00  0.00    +0.000 C 
ATOM      3  C   UNL     1     -46.132  -7.170 -29.714  0.00  0.00    +0.000 C 
ATOM      4  C   UNL     1     -44.049  -6.069 -29.353  0.00  0.00    +0.000 C 
ATOM      5  N   UNL     1     -44.702  -7.173 -30.049  0.00  0.00    +0.000 NA
ATOM      6  N   UNL     1     -44.985  -9.991 -29.894  0.00  0.00    +0.000 NA
ATOM      7  S   UNL     1     -43.998  -8.636 -29.430  0.00  0.00    +0.000 S 
ATOM      8  O   UNL     1     -42.625  -8.811 -30.013  0.00  0.00    +0.000 OA
ATOM      9  O   UNL     1     -43.893  -8.577 -27.931  0.00  0.00    +0.000 OA
ENDROOT
BRANCH   1  12
ATOM     10  C   UNL     1     -46.343 -12.337 -27.850  0.00  0.00    +0.000 C 
ATOM     11  C   UNL     1     -46.764 -10.970 -27.438  0.00  0.00    +0.000 A 
ATOM     12  C   UNL     1     -46.825  -9.838 -28.237  0.00  0.00    +0.000 A 
ATOM     13  C   UNL     1     -47.185  -8.809 -27.382  0.00  0.00    +0.000 A 
ATOM     14  C   UNL     1     -47.748  -8.622 -24.973  0.00  0.00    +0.000 C 
ATOM     15  N   UNL     1     -47.360  -9.353 -26.164  0.00  0.00    +0.000 N 
ATOM     16  N   UNL     1     -47.104 -10.650 -26.177  0.00  0.00    +0.000 NA
ENDBRANCH   1  12
BRANCH   3  17
ATOM     17  C   UNL     1     -46.804  -5.930 -30.222  0.00  0.00    +0.000 C 
ATOM     18  N   UNL     1     -46.627  -5.521 -31.580  0.00  0.00    +0.000 NA
ATOM     19  O   UNL     1     -47.520  -5.251 -29.437  0.00  0.00    +0.000 OA
BRANCH  18  20
ATOM     20  C   UNL     1     -47.257  -4.323 -32.111  0.00  0.00    +0.000 C 
BRANCH  20  21
ATOM     21  C   UNL     1     -46.235  -3.257 -32.289  0.00  0.00    +0.000 A 
ATOM     22  C   UNL     1     -45.853  -2.464 -31.201  0.00  0.00    +0.000 A 
ATOM     23  C   UNL     1     -44.910  -1.447 -31.372  0.00  0.00    +0.000 A 
ATOM     24  C   UNL     1     -44.351  -1.217 -32.635  0.00  0.00    +0.000 A 
ATOM     25  C   UNL     1     -44.739  -2.004 -33.724  0.00  0.00    +0.000 A 
ATOM     26  C   UNL     1     -45.682  -3.021 -33.552  0.00  0.00    +0.000 A 
ATOM     27  F   UNL     1     -43.437  -0.231 -32.802  0.00  0.00    +0.000 F 
ENDBRANCH  20  21
ENDBRANCH  18  20
ENDBRANCH   3  17
TORSDOF 4
ENDMDL
MODEL 2
REMARK VINA RESULT:      -6.3      2.296      3.132
REMARK  Name = ZINC000072335160 ZINC72335160 PubChem-95797839
REMARK  4 active torsions:
REMARK  status: ('A' for Active; 'I' for Inactive)
REMARK    1  A    between atoms: C_3  and  C_6
REMARK    2  A    between atoms: C_8  and  C_10
REMARK    3  A    between atoms: C_11  and  C_12
REMARK    4  A    between atoms: C_11  and  N_22
REMARK                            x       y       z     vdW  Elec       q    Type
REMARK                         _______ _______ _______ _____ _____    ______ ____
ROOT
ATOM      1  C   UNL     1     -47.518  -8.178 -29.589  0.00  0.00    +0.000 C 
ATOM      2  C   UNL     1     -47.303  -7.433 -30.910  0.00  0.00    +0.000 C 
ATOM      3  C   UNL     1     -45.884  -7.618 -31.452  0.00  0.00    +0.000 C 
ATOM      4  C   UNL     1     -44.285  -9.164 -32.307  0.00  0.00    +0.000 C 
ATOM      5  N   UNL     1     -45.676  -9.001 -31.899  0.00  0.00    +0.000 NA
ATOM      6  N   UNL     1     -47.408  -9.632 -29.743  0.00  0.00    +0.000 NA
ATOM      7  S   UNL     1     -45.922 -10.057 -30.541  0.00  0.00    +0.000 S 
ATOM      8  O   UNL     1     -46.017 -11.475 -31.026  0.00  0.00    +0.000 OA
ATOM      9  O   UNL     1     -44.777  -9.943 -29.571  0.00  0.00    +0.000 OA
ENDROOT
BRANCH   1  12
ATOM     10  C   UNL     1     -46.803  -5.119 -28.914  0.00  0.00    +0.000 C 
ATOM     11  C   UNL     1     -46.427  -6.324 -28.123  0.00  0.00    +0.000 A 
ATOM     12  C   UNL     1     -46.705  -7.646 -28.434  0.00  0.00    +0.000 A 
ATOM     13  C   UNL     1     -46.231  -8.378 -27.358  0.00  0.00    +0.000 A 
ATOM     14  C   UNL     1     -45.047  -7.854 -25.241  0.00  0.00    +0.000 C 
ATOM     15  N   UNL     1     -45.672  -7.503 -26.502  0.00  0.00    +0.000 N 
ATOM     16  N   UNL     1     -45.787  -6.262 -26.943  0.00  0.00    +0.000 NA
ENDBRANCH   1  12
BRANCH   3  17
ATOM     17  C   UNL     1     -45.687  -6.649 -32.580  0.00  0.00    +0.000 C 
ATOM     18  N   UNL     1     -44.662  -5.656 -32.503  0.00  0.00    +0.000 NA
ATOM     19  O   UNL     1     -46.437  -6.717 -33.591  0.00  0.00    +0.000 OA
BRANCH  18  20
ATOM     20  C   UNL     1     -44.440  -4.696 -33.571  0.00  0.00    +0.000 C 
BRANCH  20  21
ATOM     21  C   UNL     1     -44.517  -3.313 -33.025  0.00  0.00    +0.000 A 
ATOM     22  C   UNL     1     -43.900  -2.257 -33.704  0.00  0.00    +0.000 A 
ATOM     23  C   UNL     1     -43.952  -0.962 -33.180  0.00  0.00    +0.000 A 
ATOM     24  C   UNL     1     -44.618  -0.723 -31.973  0.00  0.00    +0.000 A 
ATOM     25  C   UNL     1     -45.229  -1.780 -31.290  0.00  0.00    +0.000 A 
ATOM     26  C   UNL     1     -45.176  -3.074 -31.815  0.00  0.00    +0.000 A 
ATOM     27  F   UNL     1     -44.669   0.532 -31.465  0.00  0.00    +0.000 F 
ENDBRANCH  20  21
ENDBRANCH  18  20
ENDBRANCH   3  17
TORSDOF 4
ENDMDL
MODEL 3
REMARK VINA RESULT:      -6.2      1.931      2.193
REMARK  Name = ZINC000072335160 ZINC72335160 PubChem-95797839
REMARK  4 active torsions:
REMARK  status: ('A' for Active; 'I' for Inactive)
REMARK    1  A    between atoms: C_3  and  C_6
REMARK    2  A    between atoms: C_8  and  C_10
REMARK    3  A    between atoms: C_11  and  C_12
REMARK    4  A    between atoms: C_11  and  N_22
REMARK                            x       y       z     vdW  Elec       q    Type
REMARK                         _______ _______ _______ _____ _____    ______ ____
ROOT
ATOM      1  C   UNL     1     -47.127  -9.108 -30.975  0.00  0.00    +0.000 C 
ATOM      2  C   UNL     1     -47.287  -7.853 -31.840  0.00  0.00    +0.000 C 
ATOM      3  C   UNL     1     -46.015  -7.004 -31.865  0.00  0.00    +0.000 C 
ATOM      4  C   UNL     1     -43.723  -6.901 -32.512  0.00  0.00    +0.000 C 
ATOM      5  N   UNL     1     -44.946  -7.692 -32.601  0.00  0.00    +0.000 NA
ATOM      6  N   UNL     1     -46.121 -10.031 -31.509  0.00  0.00    +0.000 NA
ATOM      7  S   UNL     1     -44.621  -9.203 -31.808  0.00  0.00    +0.000 S 
ATOM      8  O   UNL     1     -43.762 -10.056 -32.698  0.00  0.00    +0.000 OA
ATOM      9  O   UNL     1     -43.904  -8.971 -30.506  0.00  0.00    +0.000 OA
ENDROOT
BRANCH   1  12
ATOM     10  C   UNL     1     -46.583 -11.216 -28.612  0.00  0.00    +0.000 C 
ATOM     11  C   UNL     1     -46.676  -9.736 -28.489  0.00  0.00    +0.000 A 
ATOM     12  C   UNL     1     -46.946  -8.829 -29.502  0.00  0.00    +0.000 A 
ATOM     13  C   UNL     1     -46.837  -7.581 -28.911  0.00  0.00    +0.000 A 
ATOM     14  C   UNL     1     -46.371  -6.738 -26.624  0.00  0.00    +0.000 C 
ATOM     15  N   UNL     1     -46.560  -7.785 -27.610  0.00  0.00    +0.000 N 
ATOM     16  N   UNL     1     -46.452  -9.075 -27.340  0.00  0.00    +0.000 NA
ENDBRANCH   1  12
BRANCH   3  17
ATOM     17  C   UNL     1     -46.347  -5.686 -32.499  0.00  0.00    +0.000 C 
ATOM     18  N   UNL     1     -46.114  -4.468 -31.788  0.00  0.00    +0.000 NA
ATOM     19  O   UNL     1     -46.839  -5.665 -33.659  0.00  0.00    +0.000 OA
BRANCH  18  20
ATOM     20  C   UNL     1     -46.426  -3.170 -32.363  0.00  0.00    +0.000 C 
BRANCH  20  21
ATOM     21  C   UNL     1     -45.167  -2.418 -32.613  0.00  0.00    +0.000 A 
ATOM     22  C   UNL     1     -44.947  -1.190 -31.978  0.00  0.00    +0.000 A 
ATOM     23  C   UNL     1     -43.775  -0.471 -32.231  0.00  0.00    +0.000 A 
ATOM     24  C   UNL     1     -42.823  -0.977 -33.124  0.00  0.00    +0.000 A 
ATOM     25  C   UNL     1     -43.046  -2.200 -33.765  0.00  0.00    +0.000 A 
ATOM     26  C   UNL     1     -44.218  -2.918 -33.511  0.00  0.00    +0.000 A 
ATOM     27  F   UNL     1     -41.687  -0.281 -33.369  0.00  0.00    +0.000 F 
ENDBRANCH  20  21
ENDBRANCH  18  20
ENDBRANCH   3  17
TORSDOF 4
ENDMDL
