MODEL 1
REMARK VINA RESULT:      -5.7      0.000      0.000
REMARK  Name = ZINC000222958584 PubChem-100170263
REMARK  7 active torsions:
REMARK  status: ('A' for Active; 'I' for Inactive)
REMARK    1  A    between atoms: C_2  and  C_3
REMARK    2  A    between atoms: C_3  and  C_4
REMARK    3  A    between atoms: C_3  and  O_24
REMARK    4  A    between atoms: C_5  and  N_25
REMARK    5  A    between atoms: C_9  and  C_11
REMARK    6  A    between atoms: C_11  and  O_23
REMARK    7  A    between atoms: C_13  and  O_24
REMARK                            x       y       z     vdW  Elec       q    Type
REMARK                         _______ _______ _______ _____ _____    ______ ____
ROOT
ATOM      1  C   UNL     1     -43.060 -19.912 -20.522  0.00  0.00    +0.000 C 
ATOM      2  O   UNL     1     -42.200 -20.804 -20.300  0.00  0.00    +0.000 OA
ATOM      3  N   UNL     1     -43.989 -19.571 -19.488  0.00  0.00    +0.000 NA
ENDROOT
BRANCH   3   4
ATOM      4  C   UNL     1     -44.506 -18.261 -19.241  0.00  0.00    +0.000 A 
ATOM      5  C   UNL     1     -45.889 -18.027 -19.304  0.00  0.00    +0.000 A 
ATOM      6  C   UNL     1     -46.395 -16.755 -19.029  0.00  0.00    +0.000 A 
ATOM      7  C   UNL     1     -45.534 -15.719 -18.662  0.00  0.00    +0.000 A 
ATOM      8  C   UNL     1     -44.155 -15.948 -18.560  0.00  0.00    +0.000 A 
ATOM      9  C   UNL     1     -43.650 -17.221 -18.853  0.00  0.00    +0.000 A 
ATOM     10 CL   UNL     1     -47.006 -19.303 -19.759  0.00  0.00    +0.000 Cl
BRANCH   8  11
ATOM     11  C   UNL     1     -43.256 -14.863 -18.137  0.00  0.00    +0.000 C 
ATOM     12  O   UNL     1     -42.822 -14.827 -16.953  0.00  0.00    +0.000 OA
BRANCH  11  14
ATOM     13  C   UNL     1     -42.906 -14.102 -20.452  0.00  0.00    +0.000 C 
ATOM     14  O   UNL     1     -42.884 -13.874 -19.052  0.00  0.00    +0.000 OA
ENDBRANCH  11  14
ENDBRANCH   8  11
ENDBRANCH   3   4
BRANCH   1  15
ATOM     15  C   UNL     1     -43.161 -19.338 -21.903  0.00  0.00    +0.000 C 
BRANCH  15  17
ATOM     16  C   UNL     1     -41.685 -19.332 -23.909  0.00  0.00    +0.000 C 
ATOM     17  C   UNL     1     -42.420 -20.204 -22.911  0.00  0.00    +0.000 C 
ENDBRANCH  15  17
BRANCH  15  18
ATOM     18  O   UNL     1     -44.516 -19.159 -22.300  0.00  0.00    +0.000 OA
BRANCH  18  19
ATOM     19  C   UNL     1     -44.950 -18.053 -23.037  0.00  0.00    +0.000 A 
ATOM     20  C   UNL     1     -45.433 -18.233 -24.343  0.00  0.00    +0.000 A 
ATOM     21  C   UNL     1     -45.864 -17.131 -25.089  0.00  0.00    +0.000 A 
ATOM     22  C   UNL     1     -45.815 -15.847 -24.539  0.00  0.00    +0.000 A 
ATOM     23  C   UNL     1     -45.331 -15.659 -23.243  0.00  0.00    +0.000 A 
ATOM     24  C   UNL     1     -44.900 -16.757 -22.495  0.00  0.00    +0.000 A 
ATOM     25  C   UNL     1     -46.274 -14.682 -25.339  0.00  0.00    +0.000 C 
ATOM     26  C   UNL     1     -45.441 -19.581 -24.973  0.00  0.00    +0.000 C 
ENDBRANCH  18  19
ENDBRANCH  15  18
ENDBRANCH   1  15
TORSDOF 7
ENDMDL
MODEL 2
REMARK VINA RESULT:      -5.4      3.890      6.908
REMARK  Name = ZINC000222958584 PubChem-100170263
REMARK  7 active torsions:
REMARK  status: ('A' for Active; 'I' for Inactive)
REMARK    1  A    between atoms: C_2  and  C_3
REMARK    2  A    between atoms: C_3  and  C_4
REMARK    3  A    between atoms: C_3  and  O_24
REMARK    4  A    between atoms: C_5  and  N_25
REMARK    5  A    between atoms: C_9  and  C_11
REMARK    6  A    between atoms: C_11  and  O_23
REMARK    7  A    between atoms: C_13  and  O_24
REMARK                            x       y       z     vdW  Elec       q    Type
REMARK                         _______ _______ _______ _____ _____    ______ ____
ROOT
ATOM      1  C   UNL     1     -43.556 -16.789 -24.135  0.00  0.00    +0.000 C 
ATOM      2  O   UNL     1     -42.716 -17.569 -23.616  0.00  0.00    +0.000 OA
ATOM      3  N   UNL     1     -43.085 -15.673 -24.900  0.00  0.00    +0.000 NA
ENDROOT
BRANCH   3   4
ATOM      4  C   UNL     1     -43.726 -15.140 -26.062  0.00  0.00    +0.000 A 
ATOM      5  C   UNL     1     -43.355 -15.593 -27.338  0.00  0.00    +0.000 A 
ATOM      6  C   UNL     1     -44.005 -15.097 -28.471  0.00  0.00    +0.000 A 
ATOM      7  C   UNL     1     -45.044 -14.173 -28.338  0.00  0.00    +0.000 A 
ATOM      8  C   UNL     1     -45.449 -13.742 -27.068  0.00  0.00    +0.000 A 
ATOM      9  C   UNL     1     -44.783 -14.229 -25.936  0.00  0.00    +0.000 A 
ATOM     10 CL   UNL     1     -42.055 -16.753 -27.549  0.00  0.00    +0.000 Cl
BRANCH   8  11
ATOM     11  C   UNL     1     -46.569 -12.798 -26.931  0.00  0.00    +0.000 C 
ATOM     12  O   UNL     1     -47.539 -12.847 -27.737  0.00  0.00    +0.000 OA
BRANCH  11  14
ATOM     13  C   UNL     1     -46.653 -10.457 -26.173  0.00  0.00    +0.000 C 
ATOM     14  O   UNL     1     -46.554 -11.847 -25.906  0.00  0.00    +0.000 OA
ENDBRANCH  11  14
ENDBRANCH   8  11
ENDBRANCH   3   4
BRANCH   1  15
ATOM     15  C   UNL     1     -45.008 -16.982 -23.822  0.00  0.00    +0.000 C 
BRANCH  15  17
ATOM     16  C   UNL     1     -45.634 -19.248 -24.644  0.00  0.00    +0.000 C 
ATOM     17  C   UNL     1     -45.708 -17.761 -24.926  0.00  0.00    +0.000 C 
ENDBRANCH  15  17
BRANCH  15  18
ATOM     18  O   UNL     1     -45.194 -17.623 -22.564  0.00  0.00    +0.000 OA
BRANCH  18  19
ATOM     19  C   UNL     1     -45.651 -16.946 -21.429  0.00  0.00    +0.000 A 
ATOM     20  C   UNL     1     -45.896 -17.660 -20.245  0.00  0.00    +0.000 A 
ATOM     21  C   UNL     1     -46.358 -16.990 -19.107  0.00  0.00    +0.000 A 
ATOM     22  C   UNL     1     -46.578 -15.612 -19.143  0.00  0.00    +0.000 A 
ATOM     23  C   UNL     1     -46.342 -14.895 -20.318  0.00  0.00    +0.000 A 
ATOM     24  C   UNL     1     -45.880 -15.560 -21.457  0.00  0.00    +0.000 A 
ATOM     25  C   UNL     1     -47.070 -14.909 -17.929  0.00  0.00    +0.000 C 
ATOM     26  C   UNL     1     -45.725 -19.137 -20.197  0.00  0.00    +0.000 C 
ENDBRANCH  18  19
ENDBRANCH  15  18
ENDBRANCH   1  15
TORSDOF 7
ENDMDL
MODEL 3
REMARK VINA RESULT:      -5.4      3.301      7.126
REMARK  Name = ZINC000222958584 PubChem-100170263
REMARK  7 active torsions:
REMARK  status: ('A' for Active; 'I' for Inactive)
REMARK    1  A    between atoms: C_2  and  C_3
REMARK    2  A    between atoms: C_3  and  C_4
REMARK    3  A    between atoms: C_3  and  O_24
REMARK    4  A    between atoms: C_5  and  N_25
REMARK    5  A    between atoms: C_9  and  C_11
REMARK    6  A    between atoms: C_11  and  O_23
REMARK    7  A    between atoms: C_13  and  O_24
REMARK                            x       y       z     vdW  Elec       q    Type
REMARK                         _______ _______ _______ _____ _____    ______ ____
ROOT
ATOM      1  C   UNL     1     -45.549 -12.859 -22.782  0.00  0.00    +0.000 C 
ATOM      2  O   UNL     1     -45.684 -11.634 -22.528  0.00  0.00    +0.000 OA
ATOM      3  N   UNL     1     -46.268 -13.422 -23.884  0.00  0.00    +0.000 NA
ENDROOT
BRANCH   3   4
ATOM      4  C   UNL     1     -45.786 -14.464 -24.738  0.00  0.00    +0.000 A 
ATOM      5  C   UNL     1     -45.069 -14.142 -25.902  0.00  0.00    +0.000 A 
ATOM      6  C   UNL     1     -44.570 -15.160 -26.717  0.00  0.00    +0.000 A 
ATOM      7  C   UNL     1     -44.753 -16.499 -26.364  0.00  0.00    +0.000 A 
ATOM      8  C   UNL     1     -45.434 -16.832 -25.186  0.00  0.00    +0.000 A 
ATOM      9  C   UNL     1     -45.948 -15.809 -24.380  0.00  0.00    +0.000 A 
ATOM     10 CL   UNL     1     -44.815 -12.473 -26.381  0.00  0.00    +0.000 Cl
BRANCH   8  11
ATOM     11  C   UNL     1     -45.593 -18.243 -24.799  0.00  0.00    +0.000 C 
ATOM     12  O   UNL     1     -46.648 -18.866 -25.103  0.00  0.00    +0.000 OA
BRANCH  11  14
ATOM     13  C   UNL     1     -44.183 -20.220 -24.397  0.00  0.00    +0.000 C 
ATOM     14  O   UNL     1     -44.573 -18.889 -24.096  0.00  0.00    +0.000 OA
ENDBRANCH  11  14
ENDBRANCH   8  11
ENDBRANCH   3   4
BRANCH   1  15
ATOM     15  C   UNL     1     -44.746 -13.704 -21.840  0.00  0.00    +0.000 C 
BRANCH  15  17
ATOM     16  C   UNL     1     -42.818 -13.740 -20.264  0.00  0.00    +0.000 C 
ATOM     17  C   UNL     1     -43.486 -12.980 -21.393  0.00  0.00    +0.000 C 
ENDBRANCH  15  17
BRANCH  15  18
ATOM     18  O   UNL     1     -45.515 -14.111 -20.713  0.00  0.00    +0.000 OA
BRANCH  18  19
ATOM     19  C   UNL     1     -45.765 -15.453 -20.411  0.00  0.00    +0.000 A 
ATOM     20  C   UNL     1     -46.546 -15.781 -19.290  0.00  0.00    +0.000 A 
ATOM     21  C   UNL     1     -46.796 -17.121 -18.979  0.00  0.00    +0.000 A 
ATOM     22  C   UNL     1     -46.270 -18.139 -19.777  0.00  0.00    +0.000 A 
ATOM     23  C   UNL     1     -45.487 -17.822 -20.890  0.00  0.00    +0.000 A 
ATOM     24  C   UNL     1     -45.236 -16.485 -21.205  0.00  0.00    +0.000 A 
ATOM     25  C   UNL     1     -46.540 -19.560 -19.437  0.00  0.00    +0.000 C 
ATOM     26  C   UNL     1     -47.069 -14.718 -18.390  0.00  0.00    +0.000 C 
ENDBRANCH  18  19
ENDBRANCH  15  18
ENDBRANCH   1  15
TORSDOF 7
ENDMDL
