MODEL 1
REMARK VINA RESULT:      -6.1      0.000      0.000
REMARK  Name = ZINC000096181229
REMARK  4 active torsions:
REMARK  status: ('A' for Active; 'I' for Inactive)
REMARK    1  A    between atoms: C_3  and  C_4
REMARK    2  A    between atoms: C_4  and  N_20
REMARK    3  A    between atoms: C_5  and  C_6
REMARK    4  A    between atoms: C_10  and  C_11
REMARK                            x       y       z     vdW  Elec       q    Type
REMARK                         _______ _______ _______ _____ _____    ______ ____
ROOT
ATOM      1  C   UNL     1     -43.686 -18.588 -21.050  0.00  0.00    +0.000 C 
ATOM      2  C   UNL     1     -42.466 -19.436 -20.661  0.00  0.00    +0.000 C 
ATOM      3  C   UNL     1     -42.883 -20.062 -19.391  0.00  0.00    +0.000 C 
ATOM      4  C   UNL     1     -44.934 -20.350 -17.931  0.00  0.00    +0.000 C 
ATOM      5  C   UNL     1     -44.788 -18.847 -20.005  0.00  0.00    +0.000 C 
ATOM      6  N   UNL     1     -44.189 -19.702 -18.998  0.00  0.00    +0.000 N 
ATOM      7  O   UNL     1     -42.157 -20.852 -18.730  0.00  0.00    +0.000 OA
ENDROOT
BRANCH   5   8
ATOM      8  C   UNL     1     -45.274 -17.562 -19.406  0.00  0.00    +0.000 A 
ATOM      9  C   UNL     1     -44.340 -16.602 -19.006  0.00  0.00    +0.000 A 
ATOM     10  C   UNL     1     -44.770 -15.396 -18.444  0.00  0.00    +0.000 A 
ATOM     11  C   UNL     1     -46.136 -15.147 -18.281  0.00  0.00    +0.000 A 
ATOM     12  C   UNL     1     -46.592 -13.865 -17.683  0.00  0.00    +0.000 C 
ATOM     13  C   UNL     1     -47.074 -16.104 -18.678  0.00  0.00    +0.000 A 
ATOM     14  C   UNL     1     -46.645 -17.310 -19.241  0.00  0.00    +0.000 A 
ENDBRANCH   5   8
BRANCH   1  15
ATOM     15  C   UNL     1     -44.164 -18.948 -22.417  0.00  0.00    +0.000 C 
ATOM     16  N   UNL     1     -45.347 -18.345 -22.946  0.00  0.00    +0.000 NA
ATOM     17  O   UNL     1     -43.513 -19.783 -23.099  0.00  0.00    +0.000 OA
BRANCH  16  18
ATOM     18  C   UNL     1     -45.839 -18.652 -24.279  0.00  0.00    +0.000 C 
BRANCH  18  21
ATOM     19  C   UNL     1     -46.513 -15.590 -24.780  0.00  0.00    +0.000 C 
ATOM     20  C   UNL     1     -45.505 -16.418 -25.505  0.00  0.00    +0.000 A 
ATOM     21  C   UNL     1     -45.203 -17.740 -25.269  0.00  0.00    +0.000 A 
ATOM     22  C   UNL     1     -44.241 -18.082 -26.204  0.00  0.00    +0.000 A 
ATOM     23  C   UNL     1     -44.732 -14.663 -27.106  0.00  0.00    +0.000 C 
ATOM     24  N   UNL     1     -43.977 -16.987 -26.952  0.00  0.00    +0.000 NA
ATOM     25  N   UNL     1     -44.740 -15.995 -26.525  0.00  0.00    +0.000 N 
ENDBRANCH  18  21
ENDBRANCH  16  18
ENDBRANCH   1  15
TORSDOF 4
ENDMDL
MODEL 2
REMARK VINA RESULT:      -6.0     11.507     14.793
REMARK  Name = ZINC000096181229
REMARK  4 active torsions:
REMARK  status: ('A' for Active; 'I' for Inactive)
REMARK    1  A    between atoms: C_3  and  C_4
REMARK    2  A    between atoms: C_4  and  N_20
REMARK    3  A    between atoms: C_5  and  C_6
REMARK    4  A    between atoms: C_10  and  C_11
REMARK                            x       y       z     vdW  Elec       q    Type
REMARK                         _______ _______ _______ _____ _____    ______ ____
ROOT
ATOM      1  C   UNL     1     -45.466  -5.865 -28.280  0.00  0.00    +0.000 C 
ATOM      2  C   UNL     1     -44.375  -6.932 -28.119  0.00  0.00    +0.000 C 
ATOM      3  C   UNL     1     -44.865  -7.745 -26.989  0.00  0.00    +0.000 C 
ATOM      4  C   UNL     1     -46.925  -8.049 -25.544  0.00  0.00    +0.000 C 
ATOM      5  C   UNL     1     -46.585  -6.183 -27.270  0.00  0.00    +0.000 C 
ATOM      6  N   UNL     1     -46.104  -7.301 -26.482  0.00  0.00    +0.000 N 
ATOM      7  O   UNL     1     -44.252  -8.746 -26.530  0.00  0.00    +0.000 OA
ENDROOT
BRANCH   5   8
ATOM      8  C   UNL     1     -46.881  -4.996 -26.405  0.00  0.00    +0.000 A 
ATOM      9  C   UNL     1     -46.842  -5.141 -25.015  0.00  0.00    +0.000 A 
ATOM     10  C   UNL     1     -47.116  -4.047 -24.187  0.00  0.00    +0.000 A 
ATOM     11  C   UNL     1     -47.429  -2.806 -24.748  0.00  0.00    +0.000 A 
ATOM     12  C   UNL     1     -47.721  -1.645 -23.867  0.00  0.00    +0.000 C 
ATOM     13  C   UNL     1     -47.471  -2.656 -26.137  0.00  0.00    +0.000 A 
ATOM     14  C   UNL     1     -47.197  -3.748 -26.965  0.00  0.00    +0.000 A 
ENDBRANCH   5   8
BRANCH   1  15
ATOM     15  C   UNL     1     -46.001  -5.864 -29.674  0.00  0.00    +0.000 C 
ATOM     16  N   UNL     1     -46.221  -4.629 -30.359  0.00  0.00    +0.000 NA
ATOM     17  O   UNL     1     -46.252  -6.962 -30.239  0.00  0.00    +0.000 OA
BRANCH  16  18
ATOM     18  C   UNL     1     -46.724  -4.582 -31.722  0.00  0.00    +0.000 C 
BRANCH  18  21
ATOM     19  C   UNL     1     -43.726  -5.263 -32.520  0.00  0.00    +0.000 C 
ATOM     20  C   UNL     1     -44.501  -4.044 -32.896  0.00  0.00    +0.000 A 
ATOM     21  C   UNL     1     -45.807  -3.764 -32.564  0.00  0.00    +0.000 A 
ATOM     22  C   UNL     1     -46.075  -2.516 -33.098  0.00  0.00    +0.000 A 
ATOM     23  C   UNL     1     -42.689  -2.885 -34.166  0.00  0.00    +0.000 C 
ATOM     24  N   UNL     1     -44.964  -2.087 -33.739  0.00  0.00    +0.000 NA
ATOM     25  N   UNL     1     -44.026  -3.011 -33.611  0.00  0.00    +0.000 N 
ENDBRANCH  18  21
ENDBRANCH  16  18
ENDBRANCH   1  15
TORSDOF 4
ENDMDL
MODEL 3
REMARK VINA RESULT:      -5.9     11.961     15.431
REMARK  Name = ZINC000096181229
REMARK  4 active torsions:
REMARK  status: ('A' for Active; 'I' for Inactive)
REMARK    1  A    between atoms: C_3  and  C_4
REMARK    2  A    between atoms: C_4  and  N_20
REMARK    3  A    between atoms: C_5  and  C_6
REMARK    4  A    between atoms: C_10  and  C_11
REMARK                            x       y       z     vdW  Elec       q    Type
REMARK                         _______ _______ _______ _____ _____    ______ ____
ROOT
ATOM      1  C   UNL     1     -44.819  -6.272 -29.550  0.00  0.00    +0.000 C 
ATOM      2  C   UNL     1     -44.020  -7.583 -29.580  0.00  0.00    +0.000 C 
ATOM      3  C   UNL     1     -44.958  -8.562 -28.996  0.00  0.00    +0.000 C 
ATOM      4  C   UNL     1     -47.380  -8.764 -28.278  0.00  0.00    +0.000 C 
ATOM      5  C   UNL     1     -46.228  -6.595 -29.019  0.00  0.00    +0.000 C 
ATOM      6  N   UNL     1     -46.202  -7.995 -28.644  0.00  0.00    +0.000 N 
ATOM      7  O   UNL     1     -44.688  -9.783 -28.841  0.00  0.00    +0.000 OA
ENDROOT
BRANCH   5   8
ATOM      8  C   UNL     1     -46.573  -5.726 -27.848  0.00  0.00    +0.000 A 
ATOM      9  C   UNL     1     -47.173  -4.484 -28.075  0.00  0.00    +0.000 A 
ATOM     10  C   UNL     1     -47.502  -3.656 -26.997  0.00  0.00    +0.000 A 
ATOM     11  C   UNL     1     -47.233  -4.069 -25.689  0.00  0.00    +0.000 A 
ATOM     12  C   UNL     1     -47.583  -3.188 -24.544  0.00  0.00    +0.000 C 
ATOM     13  C   UNL     1     -46.633  -5.310 -25.457  0.00  0.00    +0.000 A 
ATOM     14  C   UNL     1     -46.304  -6.138 -26.533  0.00  0.00    +0.000 A 
ENDBRANCH   5   8
BRANCH   1  15
ATOM     15  C   UNL     1     -44.896  -5.670 -30.914  0.00  0.00    +0.000 C 
ATOM     16  N   UNL     1     -44.916  -4.250 -31.073  0.00  0.00    +0.000 NA
ATOM     17  O   UNL     1     -44.940  -6.427 -31.921  0.00  0.00    +0.000 OA
BRANCH  16  18
ATOM     18  C   UNL     1     -44.974  -3.621 -32.382  0.00  0.00    +0.000 C 
BRANCH  18  21
ATOM     19  C   UNL     1     -41.819  -3.414 -32.682  0.00  0.00    +0.000 C 
ATOM     20  C   UNL     1     -42.778  -2.288 -32.485  0.00  0.00    +0.000 A 
ATOM     21  C   UNL     1     -44.147  -2.382 -32.377  0.00  0.00    +0.000 A 
ATOM     22  C   UNL     1     -44.602  -1.091 -32.171  0.00  0.00    +0.000 A 
ATOM     23  C   UNL     1     -41.101  -0.439 -32.418  0.00  0.00    +0.000 C 
ATOM     24  N   UNL     1     -43.531  -0.265 -32.177  0.00  0.00    +0.000 NA
ATOM     25  N   UNL     1     -42.443  -0.993 -32.366  0.00  0.00    +0.000 N 
ENDBRANCH  18  21
ENDBRANCH  16  18
ENDBRANCH   1  15
TORSDOF 4
ENDMDL
