MODEL 1
REMARK VINA RESULT:      -7.4      0.000      0.000
REMARK  Name = ZINC000096181382 ZINC96181382 PubChem-97457252
REMARK  4 active torsions:
REMARK  status: ('A' for Active; 'I' for Inactive)
REMARK    1  A    between atoms: C_5  and  C_8
REMARK    2  A    between atoms: C_9  and  C_13
REMARK    3  A    between atoms: C_14  and  C_15
REMARK    4  A    between atoms: C_14  and  N_24
REMARK                            x       y       z     vdW  Elec       q    Type
REMARK                         _______ _______ _______ _____ _____    ______ ____
ROOT
ATOM      1  C   UNL     1     -47.055  -5.695 -26.465  0.00  0.00    +0.000 C 
ATOM      2  C   UNL     1     -45.955  -5.448 -27.514  0.00  0.00    +0.000 C 
ATOM      3  C   UNL     1     -45.002  -6.649 -27.484  0.00  0.00    +0.000 C 
ATOM      4  C   UNL     1     -45.552  -7.490 -26.403  0.00  0.00    +0.000 C 
ATOM      5  C   UNL     1     -47.588  -7.660 -24.903  0.00  0.00    +0.000 C 
ATOM      6  O   UNL     1     -45.058  -8.597 -26.057  0.00  0.00    +0.000 OA
ATOM      7  N   UNL     1     -46.704  -6.937 -25.803  0.00  0.00    +0.000 N 
ENDROOT
BRANCH   1  12
ATOM      8  C   UNL     1     -47.340  -1.375 -22.627  0.00  0.00    +0.000 C 
ATOM      9  C   UNL     1     -47.265  -2.479 -23.618  0.00  0.00    +0.000 A 
ATOM     10  C   UNL     1     -47.064  -3.794 -23.187  0.00  0.00    +0.000 A 
ATOM     11  C   UNL     1     -46.995  -4.833 -24.120  0.00  0.00    +0.000 A 
ATOM     12  C   UNL     1     -47.125  -4.562 -25.487  0.00  0.00    +0.000 A 
ATOM     13  C   UNL     1     -47.329  -3.242 -25.916  0.00  0.00    +0.000 A 
ATOM     14  C   UNL     1     -47.398  -2.203 -24.983  0.00  0.00    +0.000 A 
ENDBRANCH   1  12
BRANCH   2  15
ATOM     15  C   UNL     1     -46.553  -5.282 -28.871  0.00  0.00    +0.000 C 
ATOM     16  O   UNL     1     -47.107  -6.269 -29.427  0.00  0.00    +0.000 OA
ATOM     17  N   UNL     1     -46.494  -4.017 -29.534  0.00  0.00    +0.000 NA
BRANCH  17  18
ATOM     18  C   UNL     1     -47.058  -3.812 -30.857  0.00  0.00    +0.000 C 
BRANCH  18  19
ATOM     19  C   UNL     1     -46.149  -2.953 -31.662  0.00  0.00    +0.000 A 
ATOM     20  C   UNL     1     -46.002  -3.181 -33.035  0.00  0.00    +0.000 A 
ATOM     21  C   UNL     1     -45.128  -2.390 -33.786  0.00  0.00    +0.000 A 
ATOM     22  C   UNL     1     -44.396  -1.372 -33.166  0.00  0.00    +0.000 A 
ATOM     23  C   UNL     1     -44.536  -1.148 -31.792  0.00  0.00    +0.000 A 
ATOM     24  C   UNL     1     -45.410  -1.940 -31.040  0.00  0.00    +0.000 A 
ENDBRANCH  18  19
ENDBRANCH  17  18
ENDBRANCH   2  15
TORSDOF 4
ENDMDL
MODEL 2
REMARK VINA RESULT:      -7.2      2.031      2.970
REMARK  Name = ZINC000096181382 ZINC96181382 PubChem-97457252
REMARK  4 active torsions:
REMARK  status: ('A' for Active; 'I' for Inactive)
REMARK    1  A    between atoms: C_5  and  C_8
REMARK    2  A    between atoms: C_9  and  C_13
REMARK    3  A    between atoms: C_14  and  C_15
REMARK    4  A    between atoms: C_14  and  N_24
REMARK                            x       y       z     vdW  Elec       q    Type
REMARK                         _______ _______ _______ _____ _____    ______ ____
ROOT
ATOM      1  C   UNL     1     -46.026  -6.446 -29.165  0.00  0.00    +0.000 C 
ATOM      2  C   UNL     1     -44.522  -6.266 -29.448  0.00  0.00    +0.000 C 
ATOM      3  C   UNL     1     -43.877  -7.657 -29.445  0.00  0.00    +0.000 C 
ATOM      4  C   UNL     1     -45.003  -8.552 -29.113  0.00  0.00    +0.000 C 
ATOM      5  C   UNL     1     -47.523  -8.505 -28.847  0.00  0.00    +0.000 C 
ATOM      6  O   UNL     1     -44.898  -9.804 -29.020  0.00  0.00    +0.000 OA
ATOM      7  N   UNL     1     -46.220  -7.863 -28.927  0.00  0.00    +0.000 N 
ENDROOT
BRANCH   1  12
ATOM      8  C   UNL     1     -47.654  -3.244 -24.630  0.00  0.00    +0.000 C 
ATOM      9  C   UNL     1     -47.235  -4.073 -25.790  0.00  0.00    +0.000 A 
ATOM     10  C   UNL     1     -47.419  -3.597 -27.092  0.00  0.00    +0.000 A 
ATOM     11  C   UNL     1     -47.024  -4.376 -28.183  0.00  0.00    +0.000 A 
ATOM     12  C   UNL     1     -46.447  -5.634 -27.978  0.00  0.00    +0.000 A 
ATOM     13  C   UNL     1     -46.262  -6.108 -26.670  0.00  0.00    +0.000 A 
ATOM     14  C   UNL     1     -46.656  -5.328 -25.579  0.00  0.00    +0.000 A 
ENDBRANCH   1  12
BRANCH   2  15
ATOM     15  C   UNL     1     -44.313  -5.589 -30.761  0.00  0.00    +0.000 C 
ATOM     16  O   UNL     1     -43.142  -5.453 -31.207  0.00  0.00    +0.000 OA
ATOM     17  N   UNL     1     -45.432  -5.099 -31.504  0.00  0.00    +0.000 NA
BRANCH  17  18
ATOM     18  C   UNL     1     -45.274  -4.429 -32.784  0.00  0.00    +0.000 C 
BRANCH  18  19
ATOM     19  C   UNL     1     -44.894  -3.008 -32.562  0.00  0.00    +0.000 A 
ATOM     20  C   UNL     1     -45.452  -2.292 -31.497  0.00  0.00    +0.000 A 
ATOM     21  C   UNL     1     -45.113  -0.949 -31.303  0.00  0.00    +0.000 A 
ATOM     22  C   UNL     1     -44.221  -0.319 -32.177  0.00  0.00    +0.000 A 
ATOM     23  C   UNL     1     -43.669  -1.032 -33.246  0.00  0.00    +0.000 A 
ATOM     24  C   UNL     1     -44.007  -2.375 -33.440  0.00  0.00    +0.000 A 
ENDBRANCH  18  19
ENDBRANCH  17  18
ENDBRANCH   2  15
TORSDOF 4
ENDMDL
MODEL 3
REMARK VINA RESULT:      -7.0      9.938     14.351
REMARK  Name = ZINC000096181382 ZINC96181382 PubChem-97457252
REMARK  4 active torsions:
REMARK  status: ('A' for Active; 'I' for Inactive)
REMARK    1  A    between atoms: C_5  and  C_8
REMARK    2  A    between atoms: C_9  and  C_13
REMARK    3  A    between atoms: C_14  and  C_15
REMARK    4  A    between atoms: C_14  and  N_24
REMARK                            x       y       z     vdW  Elec       q    Type
REMARK                         _______ _______ _______ _____ _____    ______ ____
ROOT
ATOM      1  C   UNL     1     -43.958 -16.633 -25.825  0.00  0.00    +0.000 C 
ATOM      2  C   UNL     1     -44.580 -17.991 -26.200  0.00  0.00    +0.000 C 
ATOM      3  C   UNL     1     -43.470 -18.864 -26.798  0.00  0.00    +0.000 C 
ATOM      4  C   UNL     1     -42.296 -17.969 -26.792  0.00  0.00    +0.000 C 
ATOM      5  C   UNL     1     -41.565 -15.710 -25.905  0.00  0.00    +0.000 C 
ATOM      6  O   UNL     1     -41.153 -18.311 -27.199  0.00  0.00    +0.000 OA
ATOM      7  N   UNL     1     -42.577 -16.691 -26.264  0.00  0.00    +0.000 N 
ENDROOT
BRANCH   1  12
ATOM      8  C   UNL     1     -46.842 -12.290 -28.335  0.00  0.00    +0.000 C 
ATOM      9  C   UNL     1     -46.096 -13.405 -27.696  0.00  0.00    +0.000 A 
ATOM     10  C   UNL     1     -46.312 -13.710 -26.349  0.00  0.00    +0.000 A 
ATOM     11  C   UNL     1     -45.611 -14.760 -25.748  0.00  0.00    +0.000 A 
ATOM     12  C   UNL     1     -44.690 -15.508 -26.491  0.00  0.00    +0.000 A 
ATOM     13  C   UNL     1     -44.478 -15.201 -27.844  0.00  0.00    +0.000 A 
ATOM     14  C   UNL     1     -45.179 -14.151 -28.444  0.00  0.00    +0.000 A 
ENDBRANCH   1  12
BRANCH   2  15
ATOM     15  C   UNL     1     -45.176 -18.644 -24.998  0.00  0.00    +0.000 C 
ATOM     16  O   UNL     1     -46.160 -19.418 -25.140  0.00  0.00    +0.000 OA
ATOM     17  N   UNL     1     -44.637 -18.390 -23.699  0.00  0.00    +0.000 NA
BRANCH  17  18
ATOM     18  C   UNL     1     -45.189 -18.999 -22.501  0.00  0.00    +0.000 C 
BRANCH  18  19
ATOM     19  C   UNL     1     -45.542 -17.940 -21.518  0.00  0.00    +0.000 A 
ATOM     20  C   UNL     1     -46.049 -18.291 -20.262  0.00  0.00    +0.000 A 
ATOM     21  C   UNL     1     -46.403 -17.295 -19.347  0.00  0.00    +0.000 A 
ATOM     22  C   UNL     1     -46.256 -15.947 -19.687  0.00  0.00    +0.000 A 
ATOM     23  C   UNL     1     -45.756 -15.595 -20.946  0.00  0.00    +0.000 A 
ATOM     24  C   UNL     1     -45.401 -16.590 -21.861  0.00  0.00    +0.000 A 
ENDBRANCH  18  19
ENDBRANCH  17  18
ENDBRANCH   2  15
TORSDOF 4
ENDMDL
