MODEL 1
REMARK VINA RESULT:      -7.2      0.000      0.000
REMARK  Name = ZINC000096181390
REMARK  4 active torsions:
REMARK  status: ('A' for Active; 'I' for Inactive)
REMARK    1  A    between atoms: C_5  and  C_6
REMARK    2  A    between atoms: C_6  and  N_20
REMARK    3  A    between atoms: C_7  and  C_8
REMARK    4  A    between atoms: C_12  and  C_13
REMARK                            x       y       z     vdW  Elec       q    Type
REMARK                         _______ _______ _______ _____ _____    ______ ____
ROOT
ATOM      1  C   UNL     1     -45.967  -5.730 -27.374  0.00  0.00    +0.000 C 
ATOM      2  C   UNL     1     -44.986  -6.909 -27.372  0.00  0.00    +0.000 C 
ATOM      3  C   UNL     1     -45.443  -7.725 -26.230  0.00  0.00    +0.000 C 
ATOM      4  C   UNL     1     -47.364  -7.888 -24.585  0.00  0.00    +0.000 C 
ATOM      5  C   UNL     1     -47.005  -5.980 -26.263  0.00  0.00    +0.000 C 
ATOM      6  N   UNL     1     -46.569  -7.182 -25.576  0.00  0.00    +0.000 N 
ATOM      7  O   UNL     1     -44.897  -8.805 -25.880  0.00  0.00    +0.000 OA
ENDROOT
BRANCH   5   8
ATOM      8  C   UNL     1     -47.076  -4.816 -25.323  0.00  0.00    +0.000 A 
ATOM      9  C   UNL     1     -47.241  -3.529 -25.844  0.00  0.00    +0.000 A 
ATOM     10  C   UNL     1     -47.310  -2.426 -24.987  0.00  0.00    +0.000 A 
ATOM     11  C   UNL     1     -47.213  -2.608 -23.604  0.00  0.00    +0.000 A 
ATOM     12  C   UNL     1     -47.287  -1.437 -22.694  0.00  0.00    +0.000 C 
ATOM     13  C   UNL     1     -47.049  -3.892 -23.078  0.00  0.00    +0.000 A 
ATOM     14  C   UNL     1     -46.979  -4.995 -23.933  0.00  0.00    +0.000 A 
ENDBRANCH   5   8
BRANCH   1  15
ATOM     15  C   UNL     1     -46.638  -5.603 -28.702  0.00  0.00    +0.000 C 
ATOM     16  N   UNL     1     -46.672  -4.340 -29.372  0.00  0.00    +0.000 NA
ATOM     17  O   UNL     1     -47.173  -6.617 -29.222  0.00  0.00    +0.000 OA
BRANCH  16  18
ATOM     18  C   UNL     1     -47.309  -4.172 -30.667  0.00  0.00    +0.000 C 
BRANCH  18  23
ATOM     19  C   UNL     1     -44.350  -0.516 -32.069  0.00  0.00    +0.000 C 
ATOM     20  C   UNL     1     -45.189  -1.742 -32.140  0.00  0.00    +0.000 A 
ATOM     21  C   UNL     1     -45.408  -2.488 -33.281  0.00  0.00    +0.000 A 
ATOM     22  C   UNL     1     -46.241  -3.524 -32.885  0.00  0.00    +0.000 A 
ATOM     23  C   UNL     1     -46.453  -3.320 -31.535  0.00  0.00    +0.000 A 
ATOM     24  O   UNL     1     -45.822  -2.254 -31.116  0.00  0.00    +0.000 OA
ENDBRANCH  18  23
ENDBRANCH  16  18
ENDBRANCH   1  15
TORSDOF 4
ENDMDL
MODEL 2
REMARK VINA RESULT:      -6.6      1.769      2.425
REMARK  Name = ZINC000096181390
REMARK  4 active torsions:
REMARK  status: ('A' for Active; 'I' for Inactive)
REMARK    1  A    between atoms: C_5  and  C_6
REMARK    2  A    between atoms: C_6  and  N_20
REMARK    3  A    between atoms: C_7  and  C_8
REMARK    4  A    between atoms: C_12  and  C_13
REMARK                            x       y       z     vdW  Elec       q    Type
REMARK                         _______ _______ _______ _____ _____    ______ ____
ROOT
ATOM      1  C   UNL     1     -44.861  -6.045 -28.558  0.00  0.00    +0.000 C 
ATOM      2  C   UNL     1     -43.936  -7.268 -28.502  0.00  0.00    +0.000 C 
ATOM      3  C   UNL     1     -44.747  -8.270 -27.784  0.00  0.00    +0.000 C 
ATOM      4  C   UNL     1     -47.107  -8.634 -26.932  0.00  0.00    +0.000 C 
ATOM      5  C   UNL     1     -46.209  -6.446 -27.930  0.00  0.00    +0.000 C 
ATOM      6  N   UNL     1     -46.027  -7.795 -27.426  0.00  0.00    +0.000 N 
ATOM      7  O   UNL     1     -44.349  -9.437 -27.527  0.00  0.00    +0.000 OA
ENDROOT
BRANCH   5   8
ATOM      8  C   UNL     1     -46.590  -5.505 -26.828  0.00  0.00    +0.000 A 
ATOM      9  C   UNL     1     -46.486  -5.933 -25.501  0.00  0.00    +0.000 A 
ATOM     10  C   UNL     1     -46.836  -5.073 -24.455  0.00  0.00    +0.000 A 
ATOM     11  C   UNL     1     -47.293  -3.782 -24.735  0.00  0.00    +0.000 A 
ATOM     12  C   UNL     1     -47.664  -2.868 -23.624  0.00  0.00    +0.000 C 
ATOM     13  C   UNL     1     -47.399  -3.349 -26.059  0.00  0.00    +0.000 A 
ATOM     14  C   UNL     1     -47.049  -4.207 -27.105  0.00  0.00    +0.000 A 
ENDBRANCH   5   8
BRANCH   1  15
ATOM     15  C   UNL     1     -45.052  -5.590 -29.967  0.00  0.00    +0.000 C 
ATOM     16  N   UNL     1     -43.967  -4.997 -30.684  0.00  0.00    +0.000 NA
ATOM     17  O   UNL     1     -46.176  -5.735 -30.515  0.00  0.00    +0.000 OA
BRANCH  16  18
ATOM     18  C   UNL     1     -44.106  -4.545 -32.059  0.00  0.00    +0.000 C 
BRANCH  18  23
ATOM     19  C   UNL     1     -41.558  -0.354 -32.242  0.00  0.00    +0.000 C 
ATOM     20  C   UNL     1     -42.716  -1.286 -32.204  0.00  0.00    +0.000 A 
ATOM     21  C   UNL     1     -44.043  -0.904 -32.210  0.00  0.00    +0.000 A 
ATOM     22  C   UNL     1     -44.764  -2.087 -32.162  0.00  0.00    +0.000 A 
ATOM     23  C   UNL     1     -43.812  -3.089 -32.135  0.00  0.00    +0.000 A 
ATOM     24  O   UNL     1     -42.604  -2.589 -32.157  0.00  0.00    +0.000 OA
ENDBRANCH  18  23
ENDBRANCH  16  18
ENDBRANCH   1  15
TORSDOF 4
ENDMDL
MODEL 3
REMARK VINA RESULT:      -6.5      2.677      6.969
REMARK  Name = ZINC000096181390
REMARK  4 active torsions:
REMARK  status: ('A' for Active; 'I' for Inactive)
REMARK    1  A    between atoms: C_5  and  C_6
REMARK    2  A    between atoms: C_6  and  N_20
REMARK    3  A    between atoms: C_7  and  C_8
REMARK    4  A    between atoms: C_12  and  C_13
REMARK                            x       y       z     vdW  Elec       q    Type
REMARK                         _______ _______ _______ _____ _____    ______ ____
ROOT
ATOM      1  C   UNL     1     -46.844  -6.552 -30.980  0.00  0.00    +0.000 C 
ATOM      2  C   UNL     1     -47.463  -7.712 -31.769  0.00  0.00    +0.000 C 
ATOM      3  C   UNL     1     -46.365  -8.138 -32.658  0.00  0.00    +0.000 C 
ATOM      4  C   UNL     1     -43.891  -7.741 -33.043  0.00  0.00    +0.000 C 
ATOM      5  C   UNL     1     -45.369  -6.426 -31.408  0.00  0.00    +0.000 C 
ATOM      6  N   UNL     1     -45.184  -7.387 -32.480  0.00  0.00    +0.000 N 
ATOM      7  O   UNL     1     -46.460  -9.086 -33.482  0.00  0.00    +0.000 OA
ENDROOT
BRANCH   5   8
ATOM      8  C   UNL     1     -45.060  -5.035 -31.870  0.00  0.00    +0.000 A 
ATOM      9  C   UNL     1     -45.904  -4.424 -32.803  0.00  0.00    +0.000 A 
ATOM     10  C   UNL     1     -45.636  -3.127 -33.250  0.00  0.00    +0.000 A 
ATOM     11  C   UNL     1     -44.522  -2.436 -32.765  0.00  0.00    +0.000 A 
ATOM     12  C   UNL     1     -44.237  -1.057 -33.240  0.00  0.00    +0.000 C 
ATOM     13  C   UNL     1     -43.675  -3.041 -31.833  0.00  0.00    +0.000 A 
ATOM     14  C   UNL     1     -43.941  -4.338 -31.385  0.00  0.00    +0.000 A 
ENDBRANCH   5   8
BRANCH   1  15
ATOM     15  C   UNL     1     -46.946  -6.798 -29.511  0.00  0.00    +0.000 C 
ATOM     16  N   UNL     1     -46.492  -5.808 -28.583  0.00  0.00    +0.000 NA
ATOM     17  O   UNL     1     -47.434  -7.882 -29.099  0.00  0.00    +0.000 OA
BRANCH  16  18
ATOM     18  C   UNL     1     -46.577  -6.003 -27.145  0.00  0.00    +0.000 C 
BRANCH  18  23
ATOM     19  C   UNL     1     -47.295  -2.672 -23.613  0.00  0.00    +0.000 C 
ATOM     20  C   UNL     1     -47.229  -3.283 -24.967  0.00  0.00    +0.000 A 
ATOM     21  C   UNL     1     -47.559  -2.639 -26.144  0.00  0.00    +0.000 A 
ATOM     22  C   UNL     1     -47.353  -3.578 -27.143  0.00  0.00    +0.000 A 
ATOM     23  C   UNL     1     -46.911  -4.712 -26.488  0.00  0.00    +0.000 A 
ATOM     24  O   UNL     1     -46.849  -4.513 -25.197  0.00  0.00    +0.000 OA
ENDBRANCH  18  23
ENDBRANCH  16  18
ENDBRANCH   1  15
TORSDOF 4
ENDMDL
