MODEL 1
REMARK VINA RESULT:      -6.4      0.000      0.000
REMARK  Name = ZINC000005207199 MCULE-6774306245 MolPort-002-650-264
REMARK  9 active torsions:
REMARK  status: ('A' for Active; 'I' for Inactive)
REMARK    1  A    between atoms: C_2  and  C_3
REMARK    2  A    between atoms: C_2  and  N_22
REMARK    3  A    between atoms: C_3  and  C_4
REMARK    4  A    between atoms: C_4  and  O_28
REMARK    5  A    between atoms: C_6  and  C_15
REMARK    6  A    between atoms: C_16  and  C_17
REMARK    7  A    between atoms: C_16  and  N_25
REMARK    8  A    between atoms: C_17  and  C_18
REMARK    9  A    between atoms: C_18  and  N_26
REMARK                            x       y       z     vdW  Elec       q    Type
REMARK                         _______ _______ _______ _____ _____    ______ ____
ROOT
ATOM      1  C   UNL     1     -47.038  -4.737 -27.904  0.00  0.00    +0.000 A 
ATOM      2  C   UNL     1     -46.739  -6.528 -29.052  0.00  0.00    +0.000 A 
ATOM      3  C   UNL     1     -46.621  -6.913 -27.710  0.00  0.00    +0.000 A 
ATOM      4  C   UNL     1     -46.821  -5.737 -27.011  0.00  0.00    +0.000 A 
ATOM      5  C   UNL     1     -46.834  -5.466 -25.648  0.00  0.00    +0.000 A 
ATOM      6  C   UNL     1     -47.089  -3.873 -23.910  0.00  0.00    +0.000 A 
ATOM      7  C   UNL     1     -47.330  -2.569 -23.472  0.00  0.00    +0.000 A 
ATOM      8  C   UNL     1     -47.550  -1.562 -24.410  0.00  0.00    +0.000 A 
ATOM      9  C   UNL     1     -47.531  -1.863 -25.771  0.00  0.00    +0.000 A 
ATOM     10  C   UNL     1     -47.290  -3.175 -26.182  0.00  0.00    +0.000 A 
ATOM     11  N   UNL     1     -46.987  -5.194 -29.161  0.00  0.00    +0.000 N 
ATOM     12  N   UNL     1     -47.070  -4.174 -25.242  0.00  0.00    +0.000 N 
ATOM     13  N   UNL     1     -47.273  -3.462 -27.517  0.00  0.00    +0.000 NA
ATOM     14  O   UNL     1     -46.632  -6.391 -24.812  0.00  0.00    +0.000 OA
ENDROOT
BRANCH   2  15
ATOM     15  C   UNL     1     -46.605  -7.467 -30.183  0.00  0.00    +0.000 C 
ATOM     16  N   UNL     1     -45.469  -8.325 -30.284  0.00  0.00    +0.000 NA
ATOM     17  O   UNL     1     -47.503  -7.508 -31.068  0.00  0.00    +0.000 OA
BRANCH  16  18
ATOM     18  C   UNL     1     -45.310  -9.282 -31.369  0.00  0.00    +0.000 C 
BRANCH  18  19
ATOM     19  C   UNL     1     -46.128 -10.532 -31.082  0.00  0.00    +0.000 C 
BRANCH  19  20
ATOM     20  C   UNL     1     -45.363 -11.500 -30.186  0.00  0.00    +0.000 C 
BRANCH  20  24
ATOM     21  C   UNL     1     -46.136 -10.959 -27.881  0.00  0.00    +0.000 A 
ATOM     22  C   UNL     1     -46.925 -11.589 -26.938  0.00  0.00    +0.000 A 
ATOM     23  C   UNL     1     -46.832 -12.846 -28.676  0.00  0.00    +0.000 A 
ATOM     24  N   UNL     1     -46.098 -11.759 -28.957  0.00  0.00    +0.000 N 
ATOM     25  N   UNL     1     -47.358 -12.767 -27.438  0.00  0.00    +0.000 NA
ENDBRANCH  20  24
ENDBRANCH  19  20
ENDBRANCH  18  19
ENDBRANCH  16  18
ENDBRANCH   2  15
BRANCH  11  26
ATOM     26  C   UNL     1     -47.205  -4.408 -30.369  0.00  0.00    +0.000 C 
BRANCH  26  27
ATOM     27  C   UNL     1     -45.879  -3.908 -30.908  0.00  0.00    +0.000 C 
BRANCH  27  28
ATOM     28  C   UNL     1     -46.106  -2.632 -31.692  0.00  0.00    +0.000 C 
BRANCH  28  30
ATOM     29  C   UNL     1     -44.583  -1.050 -31.892  0.00  0.00    +0.000 C 
ATOM     30  O   UNL     1     -45.534  -1.559 -31.009  0.00  0.00    +0.000 OA
ENDBRANCH  28  30
ENDBRANCH  27  28
ENDBRANCH  26  27
ENDBRANCH  11  26
TORSDOF 9
ENDMDL
MODEL 2
REMARK VINA RESULT:      -6.1      2.928      5.984
REMARK  Name = ZINC000005207199 MCULE-6774306245 MolPort-002-650-264
REMARK  9 active torsions:
REMARK  status: ('A' for Active; 'I' for Inactive)
REMARK    1  A    between atoms: C_2  and  C_3
REMARK    2  A    between atoms: C_2  and  N_22
REMARK    3  A    between atoms: C_3  and  C_4
REMARK    4  A    between atoms: C_4  and  O_28
REMARK    5  A    between atoms: C_6  and  C_15
REMARK    6  A    between atoms: C_16  and  C_17
REMARK    7  A    between atoms: C_16  and  N_25
REMARK    8  A    between atoms: C_17  and  C_18
REMARK    9  A    between atoms: C_18  and  N_26
REMARK                            x       y       z     vdW  Elec       q    Type
REMARK                         _______ _______ _______ _____ _____    ______ ____
ROOT
ATOM      1  C   UNL     1     -46.769  -5.459 -26.629  0.00  0.00    +0.000 A 
ATOM      2  C   UNL     1     -46.847  -5.571 -28.773  0.00  0.00    +0.000 A 
ATOM      3  C   UNL     1     -47.190  -4.252 -28.449  0.00  0.00    +0.000 A 
ATOM      4  C   UNL     1     -47.126  -4.225 -27.068  0.00  0.00    +0.000 A 
ATOM      5  C   UNL     1     -47.351  -3.202 -26.156  0.00  0.00    +0.000 A 
ATOM      6  C   UNL     1     -47.416  -2.494 -23.892  0.00  0.00    +0.000 A 
ATOM      7  C   UNL     1     -47.270  -2.749 -22.528  0.00  0.00    +0.000 A 
ATOM      8  C   UNL     1     -46.902  -4.025 -22.105  0.00  0.00    +0.000 A 
ATOM      9  C   UNL     1     -46.683  -5.032 -23.043  0.00  0.00    +0.000 A 
ATOM     10  C   UNL     1     -46.835  -4.751 -24.402  0.00  0.00    +0.000 A 
ATOM     11  N   UNL     1     -46.597  -6.304 -27.654  0.00  0.00    +0.000 N 
ATOM     12  N   UNL     1     -47.203  -3.478 -24.817  0.00  0.00    +0.000 N 
ATOM     13  N   UNL     1     -46.618  -5.743 -25.315  0.00  0.00    +0.000 NA
ATOM     14  O   UNL     1     -47.684  -2.051 -26.556  0.00  0.00    +0.000 OA
ENDROOT
BRANCH   2  15
ATOM     15  C   UNL     1     -46.773  -6.076 -30.158  0.00  0.00    +0.000 C 
ATOM     16  N   UNL     1     -45.740  -5.633 -31.039  0.00  0.00    +0.000 NA
ATOM     17  O   UNL     1     -47.632  -6.905 -30.565  0.00  0.00    +0.000 OA
BRANCH  16  18
ATOM     18  C   UNL     1     -45.617  -6.123 -32.403  0.00  0.00    +0.000 C 
BRANCH  18  19
ATOM     19  C   UNL     1     -45.143  -5.004 -33.317  0.00  0.00    +0.000 C 
BRANCH  19  20
ATOM     20  C   UNL     1     -46.084  -3.805 -33.259  0.00  0.00    +0.000 C 
BRANCH  20  24
ATOM     21  C   UNL     1     -44.509  -1.924 -33.684  0.00  0.00    +0.000 A 
ATOM     22  C   UNL     1     -44.033  -0.857 -32.947  0.00  0.00    +0.000 A 
ATOM     23  C   UNL     1     -45.399  -1.963 -31.713  0.00  0.00    +0.000 A 
ATOM     24  N   UNL     1     -45.361  -2.595 -32.896  0.00  0.00    +0.000 N 
ATOM     25  N   UNL     1     -44.591  -0.885 -31.717  0.00  0.00    +0.000 NA
ENDBRANCH  20  24
ENDBRANCH  19  20
ENDBRANCH  18  19
ENDBRANCH  16  18
ENDBRANCH   2  15
BRANCH  11  26
ATOM     26  C   UNL     1     -46.183  -7.698 -27.556  0.00  0.00    +0.000 C 
BRANCH  26  27
ATOM     27  C   UNL     1     -44.675  -7.782 -27.419  0.00  0.00    +0.000 C 
BRANCH  27  28
ATOM     28  C   UNL     1     -44.068  -8.110 -28.767  0.00  0.00    +0.000 C 
BRANCH  28  30
ATOM     29  C   UNL     1     -42.839  -6.437 -28.022  0.00  0.00    +0.000 C 
ATOM     30  O   UNL     1     -43.288  -7.038 -29.198  0.00  0.00    +0.000 OA
ENDBRANCH  28  30
ENDBRANCH  27  28
ENDBRANCH  26  27
ENDBRANCH  11  26
TORSDOF 9
ENDMDL
MODEL 3
REMARK VINA RESULT:      -6.1      2.648      5.443
REMARK  Name = ZINC000005207199 MCULE-6774306245 MolPort-002-650-264
REMARK  9 active torsions:
REMARK  status: ('A' for Active; 'I' for Inactive)
REMARK    1  A    between atoms: C_2  and  C_3
REMARK    2  A    between atoms: C_2  and  N_22
REMARK    3  A    between atoms: C_3  and  C_4
REMARK    4  A    between atoms: C_4  and  O_28
REMARK    5  A    between atoms: C_6  and  C_15
REMARK    6  A    between atoms: C_16  and  C_17
REMARK    7  A    between atoms: C_16  and  N_25
REMARK    8  A    between atoms: C_17  and  C_18
REMARK    9  A    between atoms: C_18  and  N_26
REMARK                            x       y       z     vdW  Elec       q    Type
REMARK                         _______ _______ _______ _____ _____    ______ ____
ROOT
ATOM      1  C   UNL     1     -45.581  -4.760 -31.914  0.00  0.00    +0.000 A 
ATOM      2  C   UNL     1     -45.772  -6.875 -32.236  0.00  0.00    +0.000 A 
ATOM      3  C   UNL     1     -44.724  -6.458 -33.067  0.00  0.00    +0.000 A 
ATOM      4  C   UNL     1     -44.636  -5.099 -32.827  0.00  0.00    +0.000 A 
ATOM      5  C   UNL     1     -43.788  -4.126 -33.341  0.00  0.00    +0.000 A 
ATOM      6  C   UNL     1     -43.118  -1.851 -33.386  0.00  0.00    +0.000 A 
ATOM      7  C   UNL     1     -43.248  -0.530 -32.953  0.00  0.00    +0.000 A 
ATOM      8  C   UNL     1     -44.227  -0.210 -32.014  0.00  0.00    +0.000 A 
ATOM      9  C   UNL     1     -45.064  -1.207 -31.516  0.00  0.00    +0.000 A 
ATOM     10  C   UNL     1     -44.913  -2.520 -31.964  0.00  0.00    +0.000 A 
ATOM     11  N   UNL     1     -46.295  -5.830 -31.539  0.00  0.00    +0.000 N 
ATOM     12  N   UNL     1     -43.936  -2.832 -32.901  0.00  0.00    +0.000 N 
ATOM     13  N   UNL     1     -45.737  -3.491 -31.471  0.00  0.00    +0.000 NA
ATOM     14  O   UNL     1     -42.906  -4.433 -34.191  0.00  0.00    +0.000 OA
ENDROOT
BRANCH   2  15
ATOM     15  C   UNL     1     -46.232  -8.275 -32.147  0.00  0.00    +0.000 C 
ATOM     16  N   UNL     1     -45.663  -9.167 -31.189  0.00  0.00    +0.000 NA
ATOM     17  O   UNL     1     -47.134  -8.685 -32.928  0.00  0.00    +0.000 OA
BRANCH  16  18
ATOM     18  C   UNL     1     -46.104 -10.547 -31.052  0.00  0.00    +0.000 C 
BRANCH  18  19
ATOM     19  C   UNL     1     -46.857 -10.724 -29.742  0.00  0.00    +0.000 C 
BRANCH  19  20
ATOM     20  C   UNL     1     -47.055 -12.199 -29.412  0.00  0.00    +0.000 C 
BRANCH  20  24
ATOM     21  C   UNL     1     -46.175 -13.592 -27.546  0.00  0.00    +0.000 A 
ATOM     22  C   UNL     1     -46.060 -13.440 -26.178  0.00  0.00    +0.000 A 
ATOM     23  C   UNL     1     -46.955 -11.658 -26.973  0.00  0.00    +0.000 A 
ATOM     24  N   UNL     1     -46.730 -12.468 -28.020  0.00  0.00    +0.000 N 
ATOM     25  N   UNL     1     -46.548 -12.231 -25.824  0.00  0.00    +0.000 NA
ENDBRANCH  20  24
ENDBRANCH  19  20
ENDBRANCH  18  19
ENDBRANCH  16  18
ENDBRANCH   2  15
BRANCH  11  26
ATOM     26  C   UNL     1     -47.369  -5.842 -30.554  0.00  0.00    +0.000 C 
BRANCH  26  27
ATOM     27  C   UNL     1     -46.787  -5.888 -29.154  0.00  0.00    +0.000 C 
BRANCH  27  28
ATOM     28  C   UNL     1     -47.317  -4.718 -28.353  0.00  0.00    +0.000 C 
BRANCH  28  30
ATOM     29  C   UNL     1     -46.464  -5.867 -26.675  0.00  0.00    +0.000 C 
ATOM     30  O   UNL     1     -46.565  -4.574 -27.187  0.00  0.00    +0.000 OA
ENDBRANCH  28  30
ENDBRANCH  27  28
ENDBRANCH  26  27
ENDBRANCH  11  26
TORSDOF 9
ENDMDL
