MODEL 1
REMARK VINA RESULT:      -6.8      0.000      0.000
REMARK  Name = ZINC000020530876 ZINC20530876 PubChem-92688294
REMARK  7 active torsions:
REMARK  status: ('A' for Active; 'I' for Inactive)
REMARK    1  A    between atoms: C_2  and  O_23
REMARK    2  A    between atoms: C_5  and  C_9
REMARK    3  A    between atoms: C_7  and  O_24
REMARK    4  A    between atoms: C_11  and  C_14
REMARK    5  A    between atoms: C_17  and  O_29
REMARK    6  A    between atoms: C_18  and  O_28
REMARK    7  A    between atoms: C_19  and  O_27
REMARK                            x       y       z     vdW  Elec       q    Type
REMARK                         _______ _______ _______ _____ _____    ______ ____
ROOT
ATOM      1  C   UNL     1     -47.177  -3.741 -26.359  0.00  0.00    +0.000 C 
ATOM      2  C   UNL     1     -46.595  -5.545 -28.074  0.00  0.00    +0.000 C 
ATOM      3  C   UNL     1     -46.653  -5.188 -30.490  0.00  0.00    +0.000 C 
ATOM      4  C   UNL     1     -46.821  -6.699 -30.708  0.00  0.00    +0.000 C 
ATOM      5  C   UNL     1     -46.227  -7.476 -29.576  0.00  0.00    +0.000 C 
ATOM      6  O   UNL     1     -47.541  -2.913 -27.239  0.00  0.00    +0.000 OA
ATOM      7  O   UNL     1     -45.806  -8.646 -29.765  0.00  0.00    +0.000 OA
ATOM      8  N   UNL     1     -46.738  -5.056 -26.735  0.00  0.00    +0.000 NA
ATOM      9  N   UNL     1     -46.865  -4.784 -29.095  0.00  0.00    +0.000 NA
ATOM     10  N   UNL     1     -46.164  -6.892 -28.276  0.00  0.00    +0.000 NA
ENDROOT
BRANCH   1  14
ATOM     11  C   UNL     1     -47.222  -2.628 -22.218  0.00  0.00    +0.000 A 
ATOM     12  C   UNL     1     -47.322  -1.648 -23.220  0.00  0.00    +0.000 A 
ATOM     13  C   UNL     1     -47.312  -2.011 -24.568  0.00  0.00    +0.000 A 
ATOM     14  C   UNL     1     -47.201  -3.356 -24.938  0.00  0.00    +0.000 A 
ATOM     15  C   UNL     1     -47.101  -4.333 -23.939  0.00  0.00    +0.000 A 
ATOM     16  C   UNL     1     -47.110  -3.979 -22.582  0.00  0.00    +0.000 A 
BRANCH  11  18
ATOM     17  C   UNL     1     -46.546  -1.145 -20.354  0.00  0.00    +0.000 C 
ATOM     18  O   UNL     1     -47.231  -2.282 -20.862  0.00  0.00    +0.000 OA
ENDBRANCH  11  18
BRANCH  16  20
ATOM     19  C   UNL     1     -45.771  -5.533 -21.195  0.00  0.00    +0.000 C 
ATOM     20  O   UNL     1     -47.009  -4.950 -21.578  0.00  0.00    +0.000 OA
ENDBRANCH  16  20
ENDBRANCH   1  14
BRANCH   3  21
ATOM     21  C   UNL     1     -45.336  -4.673 -31.008  0.00  0.00    +0.000 A 
ATOM     22  C   UNL     1     -44.166  -5.300 -30.566  0.00  0.00    +0.000 A 
ATOM     23  C   UNL     1     -42.922  -4.902 -31.037  0.00  0.00    +0.000 A 
ATOM     24  C   UNL     1     -42.818  -3.868 -31.969  0.00  0.00    +0.000 A 
ATOM     25  C   UNL     1     -43.971  -3.215 -32.430  0.00  0.00    +0.000 A 
ATOM     26  C   UNL     1     -45.251  -3.598 -31.937  0.00  0.00    +0.000 A 
BRANCH  26  28
ATOM     27  C   UNL     1     -47.102  -3.196 -33.591  0.00  0.00    +0.000 C 
ATOM     28  O   UNL     1     -46.383  -2.905 -32.401  0.00  0.00    +0.000 OA
ENDBRANCH  26  28
BRANCH  25  30
ATOM     29  C   UNL     1     -43.717  -0.800 -33.082  0.00  0.00    +0.000 C 
ATOM     30  O   UNL     1     -43.781  -2.188 -33.373  0.00  0.00    +0.000 OA
ENDBRANCH  25  30
BRANCH  24  32
ATOM     31  C   UNL     1     -40.736  -4.322 -33.234  0.00  0.00    +0.000 C 
ATOM     32  O   UNL     1     -41.568  -3.469 -32.459  0.00  0.00    +0.000 OA
ENDBRANCH  24  32
ENDBRANCH   3  21
TORSDOF 7
ENDMDL
MODEL 2
REMARK VINA RESULT:      -6.4     10.675     15.243
REMARK  Name = ZINC000020530876 ZINC20530876 PubChem-92688294
REMARK  7 active torsions:
REMARK  status: ('A' for Active; 'I' for Inactive)
REMARK    1  A    between atoms: C_2  and  O_23
REMARK    2  A    between atoms: C_5  and  C_9
REMARK    3  A    between atoms: C_7  and  O_24
REMARK    4  A    between atoms: C_11  and  C_14
REMARK    5  A    between atoms: C_17  and  O_29
REMARK    6  A    between atoms: C_18  and  O_28
REMARK    7  A    between atoms: C_19  and  O_27
REMARK                            x       y       z     vdW  Elec       q    Type
REMARK                         _______ _______ _______ _____ _____    ______ ____
ROOT
ATOM      1  C   UNL     1     -44.735 -14.918 -26.507  0.00  0.00    +0.000 C 
ATOM      2  C   UNL     1     -44.824 -17.357 -25.749  0.00  0.00    +0.000 C 
ATOM      3  C   UNL     1     -43.468 -18.261 -23.929  0.00  0.00    +0.000 C 
ATOM      4  C   UNL     1     -43.614 -19.671 -24.521  0.00  0.00    +0.000 C 
ATOM      5  C   UNL     1     -44.875 -19.793 -25.316  0.00  0.00    +0.000 C 
ATOM      6  O   UNL     1     -43.777 -14.632 -25.737  0.00  0.00    +0.000 OA
ATOM      7  O   UNL     1     -45.432 -20.912 -25.450  0.00  0.00    +0.000 OA
ATOM      8  N   UNL     1     -45.251 -16.257 -26.561  0.00  0.00    +0.000 NA
ATOM      9  N   UNL     1     -43.889 -17.204 -24.856  0.00  0.00    +0.000 NA
ATOM     10  N   UNL     1     -45.428 -18.637 -25.943  0.00  0.00    +0.000 NA
ENDROOT
BRANCH   1  14
ATOM     11  C   UNL     1     -46.451 -11.852 -28.965  0.00  0.00    +0.000 A 
ATOM     12  C   UNL     1     -45.804 -12.953 -29.549  0.00  0.00    +0.000 A 
ATOM     13  C   UNL     1     -45.249 -13.953 -28.749  0.00  0.00    +0.000 A 
ATOM     14  C   UNL     1     -45.330 -13.870 -27.354  0.00  0.00    +0.000 A 
ATOM     15  C   UNL     1     -45.976 -12.773 -26.772  0.00  0.00    +0.000 A 
ATOM     16  C   UNL     1     -46.536 -11.761 -27.567  0.00  0.00    +0.000 A 
BRANCH  11  18
ATOM     17  C   UNL     1     -46.228  -9.931 -30.511  0.00  0.00    +0.000 C 
ATOM     18  O   UNL     1     -47.013 -10.840 -29.752  0.00  0.00    +0.000 OA
ENDBRANCH  11  18
BRANCH  16  20
ATOM     19  C   UNL     1     -46.569  -9.840 -26.006  0.00  0.00    +0.000 C 
ATOM     20  O   UNL     1     -47.181 -10.660 -26.992  0.00  0.00    +0.000 OA
ENDBRANCH  16  20
ENDBRANCH   1  14
BRANCH   3  21
ATOM     21  C   UNL     1     -44.159 -18.121 -22.598  0.00  0.00    +0.000 A 
ATOM     22  C   UNL     1     -44.961 -16.994 -22.390  0.00  0.00    +0.000 A 
ATOM     23  C   UNL     1     -45.659 -16.825 -21.202  0.00  0.00    +0.000 A 
ATOM     24  C   UNL     1     -45.576 -17.784 -20.191  0.00  0.00    +0.000 A 
ATOM     25  C   UNL     1     -44.777 -18.925 -20.365  0.00  0.00    +0.000 A 
ATOM     26  C   UNL     1     -44.038 -19.098 -21.571  0.00  0.00    +0.000 A 
BRANCH  26  28
ATOM     27  C   UNL     1     -41.863 -20.336 -21.318  0.00  0.00    +0.000 C 
ATOM     28  O   UNL     1     -43.227 -20.240 -21.701  0.00  0.00    +0.000 OA
ENDBRANCH  26  28
BRANCH  25  30
ATOM     29  C   UNL     1     -43.802 -19.867 -18.249  0.00  0.00    +0.000 C 
ATOM     30  O   UNL     1     -44.752 -19.846 -19.303  0.00  0.00    +0.000 OA
ENDBRANCH  25  30
BRANCH  24  32
ATOM     31  C   UNL     1     -46.998 -16.441 -18.671  0.00  0.00    +0.000 C 
ATOM     32  O   UNL     1     -46.287 -17.628 -18.995  0.00  0.00    +0.000 OA
ENDBRANCH  24  32
ENDBRANCH   3  21
TORSDOF 7
ENDMDL
MODEL 3
REMARK VINA RESULT:      -6.2      1.910      2.571
REMARK  Name = ZINC000020530876 ZINC20530876 PubChem-92688294
REMARK  7 active torsions:
REMARK  status: ('A' for Active; 'I' for Inactive)
REMARK    1  A    between atoms: C_2  and  O_23
REMARK    2  A    between atoms: C_5  and  C_9
REMARK    3  A    between atoms: C_7  and  O_24
REMARK    4  A    between atoms: C_11  and  C_14
REMARK    5  A    between atoms: C_17  and  O_29
REMARK    6  A    between atoms: C_18  and  O_28
REMARK    7  A    between atoms: C_19  and  O_27
REMARK                            x       y       z     vdW  Elec       q    Type
REMARK                         _______ _______ _______ _____ _____    ______ ____
ROOT
ATOM      1  C   UNL     1     -46.853  -4.557 -28.461  0.00  0.00    +0.000 C 
ATOM      2  C   UNL     1     -46.503  -5.947 -30.576  0.00  0.00    +0.000 C 
ATOM      3  C   UNL     1     -46.196  -4.980 -32.799  0.00  0.00    +0.000 C 
ATOM      4  C   UNL     1     -46.680  -6.292 -33.435  0.00  0.00    +0.000 C 
ATOM      5  C   UNL     1     -46.415  -7.457 -32.535  0.00  0.00    +0.000 C 
ATOM      6  O   UNL     1     -46.912  -3.467 -29.093  0.00  0.00    +0.000 OA
ATOM      7  O   UNL     1     -46.255  -8.606 -33.019  0.00  0.00    +0.000 OA
ATOM      8  N   UNL     1     -46.686  -5.798 -29.163  0.00  0.00    +0.000 NA
ATOM      9  N   UNL     1     -46.472  -4.908 -31.359  0.00  0.00    +0.000 NA
ATOM     10  N   UNL     1     -46.372  -7.261 -31.122  0.00  0.00    +0.000 NA
ENDROOT
BRANCH   1  14
ATOM     11  C   UNL     1     -47.120  -4.557 -24.180  0.00  0.00    +0.000 A 
ATOM     12  C   UNL     1     -47.458  -3.409 -24.915  0.00  0.00    +0.000 A 
ATOM     13  C   UNL     1     -47.375  -3.409 -26.308  0.00  0.00    +0.000 A 
ATOM     14  C   UNL     1     -46.953  -4.556 -26.991  0.00  0.00    +0.000 A 
ATOM     15  C   UNL     1     -46.616  -5.702 -26.259  0.00  0.00    +0.000 A 
ATOM     16  C   UNL     1     -46.695  -5.711 -24.858  0.00  0.00    +0.000 A 
BRANCH  11  18
ATOM     17  C   UNL     1     -46.814  -3.467 -21.979  0.00  0.00    +0.000 C 
ATOM     18  O   UNL     1     -47.197  -4.574 -22.783  0.00  0.00    +0.000 OA
ENDBRANCH  11  18
BRANCH  16  20
ATOM     19  C   UNL     1     -45.013  -7.226 -23.857  0.00  0.00    +0.000 C 
ATOM     20  O   UNL     1     -46.358  -6.851 -24.120  0.00  0.00    +0.000 OA
ENDBRANCH  16  20
ENDBRANCH   1  14
BRANCH   3  21
ATOM     21  C   UNL     1     -44.746  -4.699 -33.087  0.00  0.00    +0.000 A 
ATOM     22  C   UNL     1     -44.107  -5.475 -34.061  0.00  0.00    +0.000 A 
ATOM     23  C   UNL     1     -42.783  -5.240 -34.405  0.00  0.00    +0.000 A 
ATOM     24  C   UNL     1     -42.063  -4.217 -33.785  0.00  0.00    +0.000 A 
ATOM     25  C   UNL     1     -42.672  -3.422 -32.801  0.00  0.00    +0.000 A 
ATOM     26  C   UNL     1     -44.023  -3.669 -32.423  0.00  0.00    +0.000 A 
BRANCH  26  28
ATOM     27  C   UNL     1     -45.165  -1.584 -31.602  0.00  0.00    +0.000 C 
ATOM     28  O   UNL     1     -44.592  -2.871 -31.416  0.00  0.00    +0.000 OA
ENDBRANCH  26  28
BRANCH  25  30
ATOM     29  C   UNL     1     -41.781  -1.074 -32.703  0.00  0.00    +0.000 C 
ATOM     30  O   UNL     1     -41.881  -2.409 -32.230  0.00  0.00    +0.000 OA
ENDBRANCH  25  30
BRANCH  24  32
ATOM     31  C   UNL     1     -39.650  -4.772 -33.687  0.00  0.00    +0.000 C 
ATOM     32  O   UNL     1     -40.731  -3.965 -34.135  0.00  0.00    +0.000 OA
ENDBRANCH  24  32
ENDBRANCH   3  21
TORSDOF 7
ENDMDL
