MODEL 1
REMARK VINA RESULT:      -6.6      0.000      0.000
REMARK  Name = ZINC000072241411 ZINC72241411 PubChem-95739681
REMARK  2 active torsions:
REMARK  status: ('A' for Active; 'I' for Inactive)
REMARK    1  A    between atoms: C_5  and  C_6
REMARK    2  A    between atoms: C_7  and  C_11
REMARK                            x       y       z     vdW  Elec       q    Type
REMARK                         _______ _______ _______ _____ _____    ______ ____
ROOT
ATOM      1  C   UNL     1     -46.024 -18.069 -20.323  0.00  0.00    +0.000 C 
ATOM      2  C   UNL     1     -44.562 -18.195 -20.797  0.00  0.00    +0.000 C 
ATOM      3  C   UNL     1     -44.475 -20.031 -19.078  0.00  0.00    +0.000 C 
ATOM      4  C   UNL     1     -45.927 -19.813 -18.800  0.00  0.00    +0.000 C 
ATOM      5  C   UNL     1     -42.353 -19.200 -20.119  0.00  0.00    +0.000 C 
ATOM      6  N   UNL     1     -43.802 -19.156 -19.991  0.00  0.00    +0.000 N 
ATOM      7  O   UNL     1     -43.847 -20.935 -18.464  0.00  0.00    +0.000 OA
ATOM      8  O   UNL     1     -46.592 -19.309 -19.940  0.00  0.00    +0.000 OA
ENDROOT
BRANCH   1  13
ATOM      9  C   UNL     1     -44.058 -12.418 -15.850  0.00  0.00    +0.000 C 
ATOM     10  C   UNL     1     -44.750 -13.487 -16.618  0.00  0.00    +0.000 A 
ATOM     11  C   UNL     1     -44.149 -14.337 -17.526  0.00  0.00    +0.000 A 
ATOM     12  C   UNL     1     -45.225 -15.105 -17.929  0.00  0.00    +0.000 A 
ATOM     13  C   UNL     1     -46.241 -16.973 -19.318  0.00  0.00    +0.000 C 
ATOM     14  N   UNL     1     -46.359 -14.733 -17.307  0.00  0.00    +0.000 NA
ATOM     15  N   UNL     1     -45.139 -16.162 -18.889  0.00  0.00    +0.000 NA
ATOM     16  O   UNL     1     -46.031 -13.752 -16.522  0.00  0.00    +0.000 OA
ATOM     17  O   UNL     1     -47.393 -16.802 -18.841  0.00  0.00    +0.000 OA
ENDBRANCH   1  13
BRANCH   2  18
ATOM     18  C   UNL     1     -44.511 -18.562 -22.250  0.00  0.00    +0.000 A 
ATOM     19  C   UNL     1     -45.321 -17.911 -23.192  0.00  0.00    +0.000 A 
ATOM     20  C   UNL     1     -45.262 -18.277 -24.540  0.00  0.00    +0.000 A 
ATOM     21  C   UNL     1     -44.394 -19.293 -24.950  0.00  0.00    +0.000 A 
ATOM     22  C   UNL     1     -43.588 -19.946 -24.014  0.00  0.00    +0.000 A 
ATOM     23  C   UNL     1     -43.647 -19.581 -22.665  0.00  0.00    +0.000 A 
ATOM     24 CL   UNL     1     -44.320 -19.750 -26.639  0.00  0.00    +0.000 Cl
ENDBRANCH   2  18
TORSDOF 2
ENDMDL
MODEL 2
REMARK VINA RESULT:      -6.4      5.286      6.835
REMARK  Name = ZINC000072241411 ZINC72241411 PubChem-95739681
REMARK  2 active torsions:
REMARK  status: ('A' for Active; 'I' for Inactive)
REMARK    1  A    between atoms: C_5  and  C_6
REMARK    2  A    between atoms: C_7  and  C_11
REMARK                            x       y       z     vdW  Elec       q    Type
REMARK                         _______ _______ _______ _____ _____    ______ ____
ROOT
ATOM      1  C   UNL     1     -44.496 -16.180 -23.877  0.00  0.00    +0.000 C 
ATOM      2  C   UNL     1     -45.095 -17.598 -23.776  0.00  0.00    +0.000 C 
ATOM      3  C   UNL     1     -43.499 -18.084 -25.660  0.00  0.00    +0.000 C 
ATOM      4  C   UNL     1     -42.988 -16.684 -25.563  0.00  0.00    +0.000 C 
ATOM      5  C   UNL     1     -45.263 -19.759 -25.061  0.00  0.00    +0.000 C 
ATOM      6  N   UNL     1     -44.604 -18.481 -24.840  0.00  0.00    +0.000 N 
ATOM      7  O   UNL     1     -42.997 -18.879 -26.500  0.00  0.00    +0.000 OA
ATOM      8  O   UNL     1     -43.129 -16.181 -24.251  0.00  0.00    +0.000 OA
ENDROOT
BRANCH   1  13
ATOM      9  C   UNL     1     -46.599  -9.531 -26.553  0.00  0.00    +0.000 C 
ATOM     10  C   UNL     1     -46.437 -10.964 -26.196  0.00  0.00    +0.000 A 
ATOM     11  C   UNL     1     -45.448 -11.480 -25.380  0.00  0.00    +0.000 A 
ATOM     12  C   UNL     1     -45.762 -12.825 -25.391  0.00  0.00    +0.000 A 
ATOM     13  C   UNL     1     -45.336 -15.225 -24.676  0.00  0.00    +0.000 C 
ATOM     14  N   UNL     1     -46.845 -13.073 -26.150  0.00  0.00    +0.000 NA
ATOM     15  N   UNL     1     -45.025 -13.825 -24.682  0.00  0.00    +0.000 NA
ATOM     16  O   UNL     1     -47.225 -11.924 -26.619  0.00  0.00    +0.000 OA
ATOM     17  O   UNL     1     -46.329 -15.668 -25.311  0.00  0.00    +0.000 OA
ENDBRANCH   1  13
BRANCH   2  18
ATOM     18  C   UNL     1     -44.822 -18.188 -22.426  0.00  0.00    +0.000 A 
ATOM     19  C   UNL     1     -43.565 -18.723 -22.108  0.00  0.00    +0.000 A 
ATOM     20  C   UNL     1     -43.336 -19.276 -20.845  0.00  0.00    +0.000 A 
ATOM     21  C   UNL     1     -44.363 -19.298 -19.897  0.00  0.00    +0.000 A 
ATOM     22  C   UNL     1     -45.618 -18.770 -20.211  0.00  0.00    +0.000 A 
ATOM     23  C   UNL     1     -45.847 -18.216 -21.474  0.00  0.00    +0.000 A 
ATOM     24 CL   UNL     1     -44.077 -19.991 -18.315  0.00  0.00    +0.000 Cl
ENDBRANCH   2  18
TORSDOF 2
ENDMDL
MODEL 3
REMARK VINA RESULT:      -6.4     16.081     17.799
REMARK  Name = ZINC000072241411 ZINC72241411 PubChem-95739681
REMARK  2 active torsions:
REMARK  status: ('A' for Active; 'I' for Inactive)
REMARK    1  A    between atoms: C_5  and  C_6
REMARK    2  A    between atoms: C_7  and  C_11
REMARK                            x       y       z     vdW  Elec       q    Type
REMARK                         _______ _______ _______ _____ _____    ______ ____
ROOT
ATOM      1  C   UNL     1     -45.596  -3.801 -30.793  0.00  0.00    +0.000 C 
ATOM      2  C   UNL     1     -44.544  -4.226 -31.837  0.00  0.00    +0.000 C 
ATOM      3  C   UNL     1     -46.560  -4.503 -33.319  0.00  0.00    +0.000 C 
ATOM      4  C   UNL     1     -47.422  -3.998 -32.208  0.00  0.00    +0.000 C 
ATOM      5  C   UNL     1     -44.339  -5.392 -34.062  0.00  0.00    +0.000 C 
ATOM      6  N   UNL     1     -45.161  -4.702 -33.080  0.00  0.00    +0.000 N 
ATOM      7  O   UNL     1     -47.077  -4.806 -34.427  0.00  0.00    +0.000 OA
ATOM      8  O   UNL     1     -46.702  -3.123 -31.364  0.00  0.00    +0.000 OA
ENDROOT
BRANCH   1  13
ATOM      9  C   UNL     1     -46.077 -10.835 -28.325  0.00  0.00    +0.000 C 
ATOM     10  C   UNL     1     -46.151  -9.367 -28.542  0.00  0.00    +0.000 A 
ATOM     11  C   UNL     1     -45.604  -8.687 -29.614  0.00  0.00    +0.000 A 
ATOM     12  C   UNL     1     -45.960  -7.385 -29.318  0.00  0.00    +0.000 A 
ATOM     13  C   UNL     1     -45.990  -4.901 -29.849  0.00  0.00    +0.000 C 
ATOM     14  N   UNL     1     -46.657  -7.313 -28.169  0.00  0.00    +0.000 NA
ATOM     15  N   UNL     1     -45.627  -6.259 -30.135  0.00  0.00    +0.000 NA
ATOM     16  O   UNL     1     -46.752  -8.531 -27.730  0.00  0.00    +0.000 OA
ATOM     17  O   UNL     1     -46.664  -4.615 -28.825  0.00  0.00    +0.000 OA
ENDBRANCH   1  13
BRANCH   2  18
ATOM     18  C   UNL     1     -43.593  -3.101 -32.113  0.00  0.00    +0.000 A 
ATOM     19  C   UNL     1     -44.040  -1.774 -32.184  0.00  0.00    +0.000 A 
ATOM     20  C   UNL     1     -43.136  -0.742 -32.451  0.00  0.00    +0.000 A 
ATOM     21  C   UNL     1     -41.783  -1.032 -32.648  0.00  0.00    +0.000 A 
ATOM     22  C   UNL     1     -41.335  -2.355 -32.581  0.00  0.00    +0.000 A 
ATOM     23  C   UNL     1     -42.239  -3.387 -32.314  0.00  0.00    +0.000 A 
ATOM     24 CL   UNL     1     -40.650   0.260 -32.981  0.00  0.00    +0.000 Cl
ENDBRANCH   2  18
TORSDOF 2
ENDMDL
