MODEL 1
REMARK VINA RESULT:      -6.3      0.000      0.000
REMARK  Name = ZINC000065211166 MolPort-010-919-017
REMARK  6 active torsions:
REMARK  status: ('A' for Active; 'I' for Inactive)
REMARK    1  A    between atoms: C_3  and  C_4
REMARK    2  A    between atoms: C_5  and  S_27
REMARK    3  A    between atoms: C_6  and  C_7
REMARK    4  A    between atoms: C_6  and  S_27
REMARK    5  A    between atoms: C_8  and  C_9
REMARK    6  A    between atoms: C_8  and  N_23
REMARK                            x       y       z     vdW  Elec       q    Type
REMARK                         _______ _______ _______ _____ _____    ______ ____
ROOT
ATOM      1  C   UNL     1     -44.824  -7.611 -25.924  0.00  0.00    +0.000 C 
ENDROOT
BRANCH   1   2
ATOM      2  C   UNL     1     -46.129  -7.055 -25.475  0.00  0.00    +0.000 C 
ATOM      3  N   UNL     1     -46.351  -5.645 -25.512  0.00  0.00    +0.000 NA
ATOM      4  O   UNL     1     -47.026  -7.835 -25.059  0.00  0.00    +0.000 OA
BRANCH   3   5
ATOM      5  C   UNL     1     -47.615  -5.052 -25.107  0.00  0.00    +0.000 C 
BRANCH   5   6
ATOM      6  C   UNL     1     -47.362  -3.945 -24.128  0.00  0.00    +0.000 A 
ATOM      7  C   UNL     1     -47.201  -4.231 -22.756  0.00  0.00    +0.000 A 
ATOM      8  C   UNL     1     -47.246  -5.630 -22.238  0.00  0.00    +0.000 C 
ATOM      9  C   UNL     1     -46.992  -3.191 -21.846  0.00  0.00    +0.000 A 
ATOM     10  C   UNL     1     -46.946  -1.867 -22.287  0.00  0.00    +0.000 A 
ATOM     11  C   UNL     1     -46.723  -0.767 -21.313  0.00  0.00    +0.000 C 
ATOM     12  C   UNL     1     -47.112  -1.577 -23.642  0.00  0.00    +0.000 A 
ATOM     13  C   UNL     1     -47.322  -2.604 -24.564  0.00  0.00    +0.000 A 
ATOM     14  C   UNL     1     -47.498  -2.246 -26.002  0.00  0.00    +0.000 C 
ENDBRANCH   5   6
ENDBRANCH   3   5
ENDBRANCH   1   2
BRANCH   1  15
ATOM     15  S   UNL     1     -44.339  -6.859 -27.505  0.00  0.00    +0.000 S 
BRANCH  15  17
ATOM     16  C   UNL     1     -46.520  -7.092 -29.296  0.00  0.00    +0.000 A 
ATOM     17  C   UNL     1     -45.619  -7.735 -28.408  0.00  0.00    +0.000 A 
ATOM     18  C   UNL     1     -46.597  -9.852 -28.894  0.00  0.00    +0.000 A 
ATOM     19  C   UNL     1     -47.499  -9.266 -29.776  0.00  0.00    +0.000 A 
ATOM     20  C   UNL     1     -47.454  -7.887 -29.973  0.00  0.00    +0.000 A 
ATOM     21  N   UNL     1     -45.689  -9.084 -28.240  0.00  0.00    +0.000 NA
BRANCH  16  24
ATOM     22  C   UNL     1     -45.665  -2.678 -31.307  0.00  0.00    +0.000 C 
ATOM     23  C   UNL     1     -46.167  -3.766 -30.429  0.00  0.00    +0.000 A 
ATOM     24  C   UNL     1     -46.534  -5.632 -29.564  0.00  0.00    +0.000 A 
ATOM     25  N   UNL     1     -45.849  -5.063 -30.582  0.00  0.00    +0.000 NA
ATOM     26  N   UNL     1     -47.225  -4.721 -28.850  0.00  0.00    +0.000 NA
ATOM     27  O   UNL     1     -46.972  -3.581 -29.414  0.00  0.00    +0.000 OA
ENDBRANCH  16  24
ENDBRANCH  15  17
ENDBRANCH   1  15
TORSDOF 6
ENDMDL
MODEL 2
REMARK VINA RESULT:      -6.1      3.459      6.619
REMARK  Name = ZINC000065211166 MolPort-010-919-017
REMARK  6 active torsions:
REMARK  status: ('A' for Active; 'I' for Inactive)
REMARK    1  A    between atoms: C_3  and  C_4
REMARK    2  A    between atoms: C_5  and  S_27
REMARK    3  A    between atoms: C_6  and  C_7
REMARK    4  A    between atoms: C_6  and  S_27
REMARK    5  A    between atoms: C_8  and  C_9
REMARK    6  A    between atoms: C_8  and  N_23
REMARK                            x       y       z     vdW  Elec       q    Type
REMARK                         _______ _______ _______ _____ _____    ______ ____
ROOT
ATOM      1  C   UNL     1     -42.270  -4.767 -31.391  0.00  0.00    +0.000 C 
ENDROOT
BRANCH   1   2
ATOM      2  C   UNL     1     -43.540  -5.513 -31.175  0.00  0.00    +0.000 C 
ATOM      3  N   UNL     1     -43.964  -5.824 -29.847  0.00  0.00    +0.000 NA
ATOM      4  O   UNL     1     -44.227  -5.870 -32.168  0.00  0.00    +0.000 OA
BRANCH   3   5
ATOM      5  C   UNL     1     -45.206  -6.530 -29.580  0.00  0.00    +0.000 C 
BRANCH   5   6
ATOM      6  C   UNL     1     -45.788  -6.053 -28.283  0.00  0.00    +0.000 A 
ATOM      7  C   UNL     1     -46.747  -5.019 -28.271  0.00  0.00    +0.000 A 
ATOM      8  C   UNL     1     -47.234  -4.389 -29.534  0.00  0.00    +0.000 C 
ATOM      9  C   UNL     1     -47.266  -4.562 -27.057  0.00  0.00    +0.000 A 
ATOM     10  C   UNL     1     -46.836  -5.120 -25.852  0.00  0.00    +0.000 A 
ATOM     11  C   UNL     1     -47.392  -4.628 -24.564  0.00  0.00    +0.000 C 
ATOM     12  C   UNL     1     -45.882  -6.139 -25.856  0.00  0.00    +0.000 A 
ATOM     13  C   UNL     1     -45.354  -6.607 -27.061  0.00  0.00    +0.000 A 
ATOM     14  C   UNL     1     -44.333  -7.695 -27.016  0.00  0.00    +0.000 C 
ENDBRANCH   5   6
ENDBRANCH   3   5
ENDBRANCH   1   2
BRANCH   1  15
ATOM     15  S   UNL     1     -42.048  -4.418 -33.160  0.00  0.00    +0.000 S 
BRANCH  15  17
ATOM     16  C   UNL     1     -42.664  -1.726 -32.534  0.00  0.00    +0.000 A 
ATOM     17  C   UNL     1     -41.673  -2.690 -32.856  0.00  0.00    +0.000 A 
ATOM     18  C   UNL     1     -39.962  -1.043 -32.668  0.00  0.00    +0.000 A 
ATOM     19  C   UNL     1     -40.897  -0.065 -32.347  0.00  0.00    +0.000 A 
ATOM     20  C   UNL     1     -42.245  -0.413 -32.281  0.00  0.00    +0.000 A 
ATOM     21  N   UNL     1     -40.365  -2.316 -32.910  0.00  0.00    +0.000 NA
BRANCH  16  24
ATOM     22  C   UNL     1     -47.228  -3.248 -33.589  0.00  0.00    +0.000 C 
ATOM     23  C   UNL     1     -46.047  -2.670 -32.897  0.00  0.00    +0.000 A 
ATOM     24  C   UNL     1     -44.116  -2.017 -32.439  0.00  0.00    +0.000 A 
ATOM     25  N   UNL     1     -44.814  -2.616 -33.430  0.00  0.00    +0.000 NA
ATOM     26  N   UNL     1     -44.893  -1.735 -31.374  0.00  0.00    +0.000 NA
ATOM     27  O   UNL     1     -46.079  -2.153 -31.696  0.00  0.00    +0.000 OA
ENDBRANCH  16  24
ENDBRANCH  15  17
ENDBRANCH   1  15
TORSDOF 6
ENDMDL
MODEL 3
REMARK VINA RESULT:      -6.1     10.844     14.820
REMARK  Name = ZINC000065211166 MolPort-010-919-017
REMARK  6 active torsions:
REMARK  status: ('A' for Active; 'I' for Inactive)
REMARK    1  A    between atoms: C_3  and  C_4
REMARK    2  A    between atoms: C_5  and  S_27
REMARK    3  A    between atoms: C_6  and  C_7
REMARK    4  A    between atoms: C_6  and  S_27
REMARK    5  A    between atoms: C_8  and  C_9
REMARK    6  A    between atoms: C_8  and  N_23
REMARK                            x       y       z     vdW  Elec       q    Type
REMARK                         _______ _______ _______ _____ _____    ______ ____
ROOT
ATOM      1  C   UNL     1     -44.617 -14.649 -21.781  0.00  0.00    +0.000 C 
ENDROOT
BRANCH   1   2
ATOM      2  C   UNL     1     -45.318 -14.987 -23.050  0.00  0.00    +0.000 C 
ATOM      3  N   UNL     1     -44.562 -15.381 -24.196  0.00  0.00    +0.000 NA
ATOM      4  O   UNL     1     -46.574 -14.916 -23.104  0.00  0.00    +0.000 OA
BRANCH   3   5
ATOM      5  C   UNL     1     -45.198 -15.743 -25.452  0.00  0.00    +0.000 C 
BRANCH   5   6
ATOM      6  C   UNL     1     -44.456 -16.882 -26.083  0.00  0.00    +0.000 A 
ATOM      7  C   UNL     1     -43.355 -16.633 -26.928  0.00  0.00    +0.000 A 
ATOM      8  C   UNL     1     -42.875 -15.245 -27.199  0.00  0.00    +0.000 C 
ATOM      9  C   UNL     1     -42.684 -17.698 -27.534  0.00  0.00    +0.000 A 
ATOM     10  C   UNL     1     -43.100 -19.012 -27.311  0.00  0.00    +0.000 A 
ATOM     11  C   UNL     1     -42.382 -20.140 -27.959  0.00  0.00    +0.000 C 
ATOM     12  C   UNL     1     -44.194 -19.266 -26.482  0.00  0.00    +0.000 A 
ATOM     13  C   UNL     1     -44.876 -18.212 -25.869  0.00  0.00    +0.000 A 
ATOM     14  C   UNL     1     -46.041 -18.531 -24.994  0.00  0.00    +0.000 C 
ENDBRANCH   5   6
ENDBRANCH   3   5
ENDBRANCH   1   2
BRANCH   1  15
ATOM     15  S   UNL     1     -43.518 -16.013 -21.297  0.00  0.00    +0.000 S 
BRANCH  15  17
ATOM     16  C   UNL     1     -44.930 -18.313 -20.442  0.00  0.00    +0.000 A 
ATOM     17  C   UNL     1     -44.844 -16.897 -20.472  0.00  0.00    +0.000 A 
ATOM     18  C   UNL     1     -46.814 -16.715 -19.144  0.00  0.00    +0.000 A 
ATOM     19  C   UNL     1     -46.937 -18.099 -19.085  0.00  0.00    +0.000 A 
ATOM     20  C   UNL     1     -45.993 -18.892 -19.734  0.00  0.00    +0.000 A 
ATOM     21  N   UNL     1     -45.783 -16.153 -19.826  0.00  0.00    +0.000 NA
BRANCH  16  24
ATOM     22  C   UNL     1     -42.408 -20.809 -23.858  0.00  0.00    +0.000 C 
ATOM     23  C   UNL     1     -42.898 -20.276 -22.560  0.00  0.00    +0.000 A 
ATOM     24  C   UNL     1     -43.964 -19.226 -21.102  0.00  0.00    +0.000 A 
ATOM     25  N   UNL     1     -43.897 -19.383 -22.443  0.00  0.00    +0.000 NA
ATOM     26  N   UNL     1     -43.050 -19.982 -20.459  0.00  0.00    +0.000 NA
ATOM     27  O   UNL     1     -42.413 -20.616 -21.394  0.00  0.00    +0.000 OA
ENDBRANCH  16  24
ENDBRANCH  15  17
ENDBRANCH   1  15
TORSDOF 6
ENDMDL
