MODEL 1
REMARK VINA RESULT:      -6.2      0.000      0.000
REMARK  Name = ZINC000225679518 PubChem-100720123
REMARK  7 active torsions:
REMARK  status: ('A' for Active; 'I' for Inactive)
REMARK    1  A    between atoms: C_5  and  S_21
REMARK    2  A    between atoms: C_8  and  N_20
REMARK    3  A    between atoms: C_10  and  O_28
REMARK    4  A    between atoms: C_11  and  O_27
REMARK    5  A    between atoms: C_13  and  C_14
REMARK    6  A    between atoms: C_14  and  O_26
REMARK    7  A    between atoms: N_20  and  S_21
REMARK                            x       y       z     vdW  Elec       q    Type
REMARK                         _______ _______ _______ _____ _____    ______ ____
ROOT
ATOM      1  N   UNL     1     -44.841 -18.640 -21.797  0.00  0.00    +0.000 NA
ENDROOT
BRANCH   1   2
ATOM      2  C   UNL     1     -45.296 -17.654 -22.734  0.00  0.00    +0.000 A 
ATOM      3  C   UNL     1     -45.611 -16.365 -22.289  0.00  0.00    +0.000 A 
ATOM      4  C   UNL     1     -46.045 -15.367 -23.171  0.00  0.00    +0.000 A 
ATOM      5  C   UNL     1     -46.175 -15.673 -24.544  0.00  0.00    +0.000 A 
ATOM      6  C   UNL     1     -45.862 -16.962 -24.985  0.00  0.00    +0.000 A 
ATOM      7  C   UNL     1     -45.423 -17.962 -24.107  0.00  0.00    +0.000 A 
BRANCH   7   8
ATOM      8  C   UNL     1     -45.110 -19.301 -24.665  0.00  0.00    +0.000 C 
ATOM      9  O   UNL     1     -45.944 -19.869 -25.424  0.00  0.00    +0.000 OA
BRANCH   8  11
ATOM     10  C   UNL     1     -42.716 -19.693 -25.096  0.00  0.00    +0.000 C 
ATOM     11  O   UNL     1     -43.905 -19.940 -24.362  0.00  0.00    +0.000 OA
ENDBRANCH   8  11
ENDBRANCH   7   8
BRANCH   5  13
ATOM     12  C   UNL     1     -45.743 -13.937 -26.293  0.00  0.00    +0.000 C 
ATOM     13  O   UNL     1     -46.603 -14.754 -25.513  0.00  0.00    +0.000 OA
ENDBRANCH   5  13
BRANCH   4  15
ATOM     14  C   UNL     1     -45.914 -13.620 -21.417  0.00  0.00    +0.000 C 
ATOM     15  O   UNL     1     -46.341 -14.086 -22.690  0.00  0.00    +0.000 OA
ENDBRANCH   4  15
ENDBRANCH   1   2
BRANCH   1  16
ATOM     16  S   UNL     1     -45.440 -18.785 -20.176  0.00  0.00    +0.000 S 
ATOM     17  O   UNL     1     -46.926 -19.009 -20.218  0.00  0.00    +0.000 OA
ATOM     18  O   UNL     1     -44.784 -19.959 -19.507  0.00  0.00    +0.000 OA
BRANCH  16  23
ATOM     19  C   UNL     1     -44.937 -12.856 -16.647  0.00  0.00    +0.000 C 
ATOM     20  C   UNL     1     -44.490 -14.979 -17.877  0.00  0.00    +0.000 A 
ATOM     21  C   UNL     1     -43.472 -15.804 -18.338  0.00  0.00    +0.000 A 
ATOM     22  C   UNL     1     -43.729 -16.980 -19.035  0.00  0.00    +0.000 A 
ATOM     23  C   UNL     1     -45.069 -17.330 -19.270  0.00  0.00    +0.000 A 
ATOM     24  C   UNL     1     -46.110 -16.501 -18.807  0.00  0.00    +0.000 A 
ATOM     25  C   UNL     1     -45.827 -15.318 -18.105  0.00  0.00    +0.000 A 
ATOM     26  C   UNL     1     -42.707 -13.819 -17.164  0.00  0.00    +0.000 A 
ATOM     27  N   UNL     1     -44.060 -13.868 -17.219  0.00  0.00    +0.000 N 
ATOM     28  S   UNL     1     -41.981 -15.145 -17.923  0.00  0.00    +0.000 S 
ATOM     29  O   UNL     1     -42.066 -12.889 -16.607  0.00  0.00    +0.000 OA
ENDBRANCH  16  23
ENDBRANCH   1  16
TORSDOF 7
ENDMDL
MODEL 2
REMARK VINA RESULT:      -6.0      2.723      4.882
REMARK  Name = ZINC000225679518 PubChem-100720123
REMARK  7 active torsions:
REMARK  status: ('A' for Active; 'I' for Inactive)
REMARK    1  A    between atoms: C_5  and  S_21
REMARK    2  A    between atoms: C_8  and  N_20
REMARK    3  A    between atoms: C_10  and  O_28
REMARK    4  A    between atoms: C_11  and  O_27
REMARK    5  A    between atoms: C_13  and  C_14
REMARK    6  A    between atoms: C_14  and  O_26
REMARK    7  A    between atoms: N_20  and  S_21
REMARK                            x       y       z     vdW  Elec       q    Type
REMARK                         _______ _______ _______ _____ _____    ______ ____
ROOT
ATOM      1  N   UNL     1     -45.582 -17.970 -23.216  0.00  0.00    +0.000 NA
ENDROOT
BRANCH   1   2
ATOM      2  C   UNL     1     -44.477 -18.848 -22.963  0.00  0.00    +0.000 A 
ATOM      3  C   UNL     1     -43.888 -18.876 -21.694  0.00  0.00    +0.000 A 
ATOM      4  C   UNL     1     -42.815 -19.728 -21.398  0.00  0.00    +0.000 A 
ATOM      5  C   UNL     1     -42.312 -20.575 -22.411  0.00  0.00    +0.000 A 
ATOM      6  C   UNL     1     -42.901 -20.543 -23.678  0.00  0.00    +0.000 A 
ATOM      7  C   UNL     1     -43.977 -19.697 -23.976  0.00  0.00    +0.000 A 
BRANCH   7   8
ATOM      8  C   UNL     1     -44.542 -19.733 -25.348  0.00  0.00    +0.000 C 
ATOM      9  O   UNL     1     -45.550 -20.455 -25.586  0.00  0.00    +0.000 OA
BRANCH   8  11
ATOM     10  C   UNL     1     -43.134 -19.565 -27.363  0.00  0.00    +0.000 C 
ATOM     11  O   UNL     1     -43.972 -18.981 -26.378  0.00  0.00    +0.000 OA
ENDBRANCH   8  11
ENDBRANCH   7   8
BRANCH   5  13
ATOM     12  C   UNL     1     -40.586 -22.172 -23.267  0.00  0.00    +0.000 C 
ATOM     13  O   UNL     1     -41.242 -21.463 -22.226  0.00  0.00    +0.000 OA
ENDBRANCH   5  13
BRANCH   4  15
ATOM     14  C   UNL     1     -43.038 -19.859 -18.933  0.00  0.00    +0.000 C 
ATOM     15  O   UNL     1     -42.258 -19.734 -20.114  0.00  0.00    +0.000 OA
ENDBRANCH   4  15
ENDBRANCH   1   2
BRANCH   1  16
ATOM     16  S   UNL     1     -45.414 -16.335 -23.769  0.00  0.00    +0.000 S 
ATOM     17  O   UNL     1     -44.026 -16.140 -24.311  0.00  0.00    +0.000 OA
ATOM     18  O   UNL     1     -46.411 -16.075 -24.862  0.00  0.00    +0.000 OA
BRANCH  16  23
ATOM     19  C   UNL     1     -46.424 -11.239 -19.200  0.00  0.00    +0.000 C 
ATOM     20  C   UNL     1     -46.129 -13.440 -20.337  0.00  0.00    +0.000 A 
ATOM     21  C   UNL     1     -46.078 -14.809 -20.113  0.00  0.00    +0.000 A 
ATOM     22  C   UNL     1     -45.871 -15.722 -21.143  0.00  0.00    +0.000 A 
ATOM     23  C   UNL     1     -45.713 -15.224 -22.446  0.00  0.00    +0.000 A 
ATOM     24  C   UNL     1     -45.763 -13.836 -22.686  0.00  0.00    +0.000 A 
ATOM     25  C   UNL     1     -45.973 -12.933 -21.632  0.00  0.00    +0.000 A 
ATOM     26  C   UNL     1     -46.442 -13.475 -18.116  0.00  0.00    +0.000 A 
ATOM     27  N   UNL     1     -46.334 -12.693 -19.219  0.00  0.00    +0.000 N 
ATOM     28  S   UNL     1     -46.292 -15.120 -18.473  0.00  0.00    +0.000 S 
ATOM     29  O   UNL     1     -46.636 -13.020 -16.958  0.00  0.00    +0.000 OA
ENDBRANCH  16  23
ENDBRANCH   1  16
TORSDOF 7
ENDMDL
MODEL 3
REMARK VINA RESULT:      -6.0      3.860      7.795
REMARK  Name = ZINC000225679518 PubChem-100720123
REMARK  7 active torsions:
REMARK  status: ('A' for Active; 'I' for Inactive)
REMARK    1  A    between atoms: C_5  and  S_21
REMARK    2  A    between atoms: C_8  and  N_20
REMARK    3  A    between atoms: C_10  and  O_28
REMARK    4  A    between atoms: C_11  and  O_27
REMARK    5  A    between atoms: C_13  and  C_14
REMARK    6  A    between atoms: C_14  and  O_26
REMARK    7  A    between atoms: N_20  and  S_21
REMARK                            x       y       z     vdW  Elec       q    Type
REMARK                         _______ _______ _______ _____ _____    ______ ____
ROOT
ATOM      1  N   UNL     1     -46.147 -15.746 -23.659  0.00  0.00    +0.000 NA
ENDROOT
BRANCH   1   2
ATOM      2  C   UNL     1     -45.518 -16.778 -22.889  0.00  0.00    +0.000 A 
ATOM      3  C   UNL     1     -45.203 -16.549 -21.545  0.00  0.00    +0.000 A 
ATOM      4  C   UNL     1     -44.601 -17.534 -20.750  0.00  0.00    +0.000 A 
ATOM      5  C   UNL     1     -44.296 -18.788 -21.326  0.00  0.00    +0.000 A 
ATOM      6  C   UNL     1     -44.610 -19.013 -22.669  0.00  0.00    +0.000 A 
ATOM      7  C   UNL     1     -45.218 -18.033 -23.465  0.00  0.00    +0.000 A 
BRANCH   7   8
ATOM      8  C   UNL     1     -45.518 -18.363 -24.881  0.00  0.00    +0.000 C 
ATOM      9  O   UNL     1     -46.438 -19.184 -25.146  0.00  0.00    +0.000 OA
BRANCH   8  11
ATOM     10  C   UNL     1     -43.437 -18.102 -26.173  0.00  0.00    +0.000 C 
ATOM     11  O   UNL     1     -44.795 -17.775 -25.921  0.00  0.00    +0.000 OA
ENDBRANCH   8  11
ENDBRANCH   7   8
BRANCH   5  13
ATOM     12  C   UNL     1     -42.292 -20.005 -20.451  0.00  0.00    +0.000 C 
ATOM     13  O   UNL     1     -43.692 -19.842 -20.626  0.00  0.00    +0.000 OA
ENDBRANCH   5  13
BRANCH   4  15
ATOM     14  C   UNL     1     -43.143 -16.573 -18.991  0.00  0.00    +0.000 C 
ATOM     15  O   UNL     1     -44.309 -17.270 -19.407  0.00  0.00    +0.000 OA
ENDBRANCH   4  15
ENDBRANCH   1   2
BRANCH   1  16
ATOM     16  S   UNL     1     -45.515 -14.140 -23.828  0.00  0.00    +0.000 S 
ATOM     17  O   UNL     1     -46.207 -13.234 -22.848  0.00  0.00    +0.000 OA
ATOM     18  O   UNL     1     -44.042 -14.152 -23.531  0.00  0.00    +0.000 OA
BRANCH  16  23
ATOM     19  C   UNL     1     -46.171 -12.761 -30.575  0.00  0.00    +0.000 C 
ATOM     20  C   UNL     1     -46.102 -12.654 -28.084  0.00  0.00    +0.000 A 
ATOM     21  C   UNL     1     -46.275 -11.800 -27.002  0.00  0.00    +0.000 A 
ATOM     22  C   UNL     1     -46.113 -12.226 -25.688  0.00  0.00    +0.000 A 
ATOM     23  C   UNL     1     -45.764 -13.568 -25.467  0.00  0.00    +0.000 A 
ATOM     24  C   UNL     1     -45.587 -14.444 -26.556  0.00  0.00    +0.000 A 
ATOM     25  C   UNL     1     -45.755 -13.992 -27.874  0.00  0.00    +0.000 A 
ATOM     26  C   UNL     1     -46.618 -10.761 -29.171  0.00  0.00    +0.000 A 
ATOM     27  N   UNL     1     -46.295 -12.071 -29.298  0.00  0.00    +0.000 N 
ATOM     28  S   UNL     1     -46.681 -10.264 -27.556  0.00  0.00    +0.000 S 
ATOM     29  O   UNL     1     -46.847 -10.003 -30.151  0.00  0.00    +0.000 OA
ENDBRANCH  16  23
ENDBRANCH   1  16
TORSDOF 7
ENDMDL
