MODEL 1
REMARK VINA RESULT:      -6.7      0.000      0.000
REMARK  Name = ZINC000253471412 PubChem-124891440
REMARK  7 active torsions:
REMARK  status: ('A' for Active; 'I' for Inactive)
REMARK    1  A    between atoms: C_5  and  C_6
REMARK    2  A    between atoms: C_6  and  C_7
REMARK    3  A    between atoms: C_6  and  C_17
REMARK    4  A    between atoms: C_7  and  C_8
REMARK    5  A    between atoms: C_9  and  C_10
REMARK    6  A    between atoms: C_9  and  N_32
REMARK    7  A    between atoms: C_10  and  C_11
REMARK                            x       y       z     vdW  Elec       q    Type
REMARK                         _______ _______ _______ _____ _____    ______ ____
ROOT
ATOM      1  C   UNL     1     -44.884 -15.401 -24.232  0.00  0.00    +0.000 C 
ENDROOT
BRANCH   1   6
ATOM      2  C   UNL     1     -43.031 -20.780 -23.369  0.00  0.00    +0.000 C 
ATOM      3  C   UNL     1     -43.543 -19.405 -23.603  0.00  0.00    +0.000 A 
ATOM      4  C   UNL     1     -44.770 -19.223 -24.237  0.00  0.00    +0.000 A 
ATOM      5  C   UNL     1     -45.233 -17.926 -24.447  0.00  0.00    +0.000 A 
ATOM      6  C   UNL     1     -44.459 -16.832 -24.015  0.00  0.00    +0.000 A 
ATOM      7  C   UNL     1     -43.230 -17.103 -23.388  0.00  0.00    +0.000 A 
ATOM      8  O   UNL     1     -46.457 -17.740 -25.079  0.00  0.00    +0.000 OA
ATOM      9  O   UNL     1     -42.495 -16.158 -22.990  0.00  0.00    +0.000 OA
ATOM     10  O   UNL     1     -42.826 -18.358 -23.207  0.00  0.00    +0.000 OA
ENDBRANCH   1   6
BRANCH   1  11
ATOM     11  C   UNL     1     -44.901 -15.019 -25.685  0.00  0.00    +0.000 A 
ATOM     12  C   UNL     1     -43.854 -15.472 -26.519  0.00  0.00    +0.000 A 
ATOM     13  C   UNL     1     -43.828 -15.134 -27.884  0.00  0.00    +0.000 A 
ATOM     14  C   UNL     1     -44.865 -14.343 -28.371  0.00  0.00    +0.000 A 
ATOM     15  C   UNL     1     -45.873 -13.905 -27.574  0.00  0.00    +0.000 A 
ATOM     16  C   UNL     1     -45.933 -14.219 -26.221  0.00  0.00    +0.000 A 
ATOM     17  C   UNL     1     -46.269 -13.106 -29.670  0.00  0.00    +0.000 C 
ATOM     18  O   UNL     1     -46.753 -13.148 -28.320  0.00  0.00    +0.000 OA
ATOM     19  O   UNL     1     -45.062 -13.882 -29.657  0.00  0.00    +0.000 OA
ENDBRANCH   1  11
BRANCH   1  20
ATOM     20  C   UNL     1     -46.173 -15.038 -23.495  0.00  0.00    +0.000 C 
BRANCH  20  21
ATOM     21  C   UNL     1     -45.889 -14.636 -22.087  0.00  0.00    +0.000 C 
ATOM     22  O   UNL     1     -44.769 -14.144 -21.786  0.00  0.00    +0.000 OA
ATOM     23  N   UNL     1     -46.895 -14.815 -21.092  0.00  0.00    +0.000 NA
BRANCH  23  24
ATOM     24  C   UNL     1     -46.684 -14.438 -19.704  0.00  0.00    +0.000 C 
BRANCH  24  25
ATOM     25  C   UNL     1     -46.968 -15.621 -18.791  0.00  0.00    +0.000 C 
BRANCH  25  26
ATOM     26  C   UNL     1     -46.091 -16.787 -19.113  0.00  0.00    +0.000 A 
ATOM     27  C   UNL     1     -46.672 -18.005 -19.481  0.00  0.00    +0.000 A 
ATOM     28  C   UNL     1     -45.863 -19.099 -19.805  0.00  0.00    +0.000 A 
ATOM     29  C   UNL     1     -44.471 -18.975 -19.767  0.00  0.00    +0.000 A 
ATOM     30  C   UNL     1     -43.887 -17.756 -19.409  0.00  0.00    +0.000 A 
ATOM     31  C   UNL     1     -44.695 -16.663 -19.085  0.00  0.00    +0.000 A 
ATOM     32  O   UNL     1     -43.668 -20.060 -20.087  0.00  0.00    +0.000 OA
ENDBRANCH  25  26
ENDBRANCH  24  25
ENDBRANCH  23  24
ENDBRANCH  20  21
ENDBRANCH   1  20
TORSDOF 7
ENDMDL
MODEL 2
REMARK VINA RESULT:      -6.6      2.163      2.988
REMARK  Name = ZINC000253471412 PubChem-124891440
REMARK  7 active torsions:
REMARK  status: ('A' for Active; 'I' for Inactive)
REMARK    1  A    between atoms: C_5  and  C_6
REMARK    2  A    between atoms: C_6  and  C_7
REMARK    3  A    between atoms: C_6  and  C_17
REMARK    4  A    between atoms: C_7  and  C_8
REMARK    5  A    between atoms: C_9  and  C_10
REMARK    6  A    between atoms: C_9  and  N_32
REMARK    7  A    between atoms: C_10  and  C_11
REMARK                            x       y       z     vdW  Elec       q    Type
REMARK                         _______ _______ _______ _____ _____    ______ ____
ROOT
ATOM      1  C   UNL     1     -44.164 -16.591 -25.150  0.00  0.00    +0.000 C 
ENDROOT
BRANCH   1   6
ATOM      2  C   UNL     1     -40.426 -20.519 -27.076  0.00  0.00    +0.000 C 
ATOM      3  C   UNL     1     -41.419 -19.528 -26.587  0.00  0.00    +0.000 A 
ATOM      4  C   UNL     1     -42.778 -19.749 -26.800  0.00  0.00    +0.000 A 
ATOM      5  C   UNL     1     -43.694 -18.809 -26.334  0.00  0.00    +0.000 A 
ATOM      6  C   UNL     1     -43.232 -17.663 -25.658  0.00  0.00    +0.000 A 
ATOM      7  C   UNL     1     -41.845 -17.514 -25.489  0.00  0.00    +0.000 A 
ATOM      8  O   UNL     1     -45.051 -19.026 -26.545  0.00  0.00    +0.000 OA
ATOM      9  O   UNL     1     -41.379 -16.501 -24.898  0.00  0.00    +0.000 OA
ATOM     10  O   UNL     1     -41.005 -18.438 -25.951  0.00  0.00    +0.000 OA
ENDBRANCH   1   6
BRANCH   1  11
ATOM     11  C   UNL     1     -44.624 -15.663 -26.238  0.00  0.00    +0.000 A 
ATOM     12  C   UNL     1     -43.928 -15.661 -27.468  0.00  0.00    +0.000 A 
ATOM     13  C   UNL     1     -44.321 -14.806 -28.513  0.00  0.00    +0.000 A 
ATOM     14  C   UNL     1     -45.410 -13.969 -28.285  0.00  0.00    +0.000 A 
ATOM     15  C   UNL     1     -46.082 -13.967 -27.105  0.00  0.00    +0.000 A 
ATOM     16  C   UNL     1     -45.724 -14.800 -26.049  0.00  0.00    +0.000 A 
ATOM     17  C   UNL     1     -47.081 -12.430 -28.457  0.00  0.00    +0.000 C 
ATOM     18  O   UNL     1     -47.108 -13.046 -27.161  0.00  0.00    +0.000 OA
ATOM     19  O   UNL     1     -45.981 -13.050 -29.140  0.00  0.00    +0.000 OA
ENDBRANCH   1  11
BRANCH   1  20
ATOM     20  C   UNL     1     -45.308 -17.143 -24.300  0.00  0.00    +0.000 C 
BRANCH  20  21
ATOM     21  C   UNL     1     -44.881 -17.334 -22.885  0.00  0.00    +0.000 C 
ATOM     22  O   UNL     1     -43.993 -16.590 -22.389  0.00  0.00    +0.000 OA
ATOM     23  N   UNL     1     -45.485 -18.363 -22.103  0.00  0.00    +0.000 NA
BRANCH  23  24
ATOM     24  C   UNL     1     -45.117 -18.597 -20.717  0.00  0.00    +0.000 C 
BRANCH  24  25
ATOM     25  C   UNL     1     -46.344 -18.491 -19.823  0.00  0.00    +0.000 C 
BRANCH  25  26
ATOM     26  C   UNL     1     -46.414 -17.163 -19.142  0.00  0.00    +0.000 A 
ATOM     27  C   UNL     1     -47.653 -16.671 -18.720  0.00  0.00    +0.000 A 
ATOM     28  C   UNL     1     -47.731 -15.439 -18.062  0.00  0.00    +0.000 A 
ATOM     29  C   UNL     1     -46.570 -14.700 -17.821  0.00  0.00    +0.000 A 
ATOM     30  C   UNL     1     -45.329 -15.194 -18.233  0.00  0.00    +0.000 A 
ATOM     31  C   UNL     1     -45.249 -16.425 -18.890  0.00  0.00    +0.000 A 
ATOM     32  O   UNL     1     -46.648 -13.477 -17.169  0.00  0.00    +0.000 OA
ENDBRANCH  25  26
ENDBRANCH  24  25
ENDBRANCH  23  24
ENDBRANCH  20  21
ENDBRANCH   1  20
TORSDOF 7
ENDMDL
MODEL 3
REMARK VINA RESULT:      -6.6     10.996     14.718
REMARK  Name = ZINC000253471412 PubChem-124891440
REMARK  7 active torsions:
REMARK  status: ('A' for Active; 'I' for Inactive)
REMARK    1  A    between atoms: C_5  and  C_6
REMARK    2  A    between atoms: C_6  and  C_7
REMARK    3  A    between atoms: C_6  and  C_17
REMARK    4  A    between atoms: C_7  and  C_8
REMARK    5  A    between atoms: C_9  and  C_10
REMARK    6  A    between atoms: C_9  and  N_32
REMARK    7  A    between atoms: C_10  and  C_11
REMARK                            x       y       z     vdW  Elec       q    Type
REMARK                         _______ _______ _______ _____ _____    ______ ____
ROOT
ATOM      1  C   UNL     1     -45.209  -3.986 -31.540  0.00  0.00    +0.000 C 
ENDROOT
BRANCH   1   6
ATOM      2  C   UNL     1     -46.215  -7.364 -36.089  0.00  0.00    +0.000 C 
ATOM      3  C   UNL     1     -45.984  -6.471 -34.924  0.00  0.00    +0.000 A 
ATOM      4  C   UNL     1     -46.698  -5.279 -34.816  0.00  0.00    +0.000 A 
ATOM      5  C   UNL     1     -46.468  -4.454 -33.717  0.00  0.00    +0.000 A 
ATOM      6  C   UNL     1     -45.529  -4.841 -32.742  0.00  0.00    +0.000 A 
ATOM      7  C   UNL     1     -44.848  -6.057 -32.929  0.00  0.00    +0.000 A 
ATOM      8  O   UNL     1     -47.178  -3.264 -33.606  0.00  0.00    +0.000 OA
ATOM      9  O   UNL     1     -43.991  -6.444 -32.089  0.00  0.00    +0.000 OA
ATOM     10  O   UNL     1     -45.099  -6.814 -33.995  0.00  0.00    +0.000 OA
ENDBRANCH   1   6
BRANCH   1  11
ATOM     11  C   UNL     1     -44.271  -2.859 -31.867  0.00  0.00    +0.000 A 
ATOM     12  C   UNL     1     -44.788  -1.547 -31.951  0.00  0.00    +0.000 A 
ATOM     13  C   UNL     1     -43.947  -0.463 -32.259  0.00  0.00    +0.000 A 
ATOM     14  C   UNL     1     -42.600  -0.736 -32.477  0.00  0.00    +0.000 A 
ATOM     15  C   UNL     1     -42.098  -1.995 -32.398  0.00  0.00    +0.000 A 
ATOM     16  C   UNL     1     -42.898  -3.091 -32.095  0.00  0.00    +0.000 A 
ATOM     17  C   UNL     1     -40.368  -0.606 -32.918  0.00  0.00    +0.000 C 
ATOM     18  O   UNL     1     -40.743  -1.967 -32.659  0.00  0.00    +0.000 OA
ATOM     19  O   UNL     1     -41.585   0.144 -32.791  0.00  0.00    +0.000 OA
ENDBRANCH   1  11
BRANCH   1  20
ATOM     20  C   UNL     1     -46.453  -3.537 -30.775  0.00  0.00    +0.000 C 
BRANCH  20  21
ATOM     21  C   UNL     1     -46.650  -4.355 -29.544  0.00  0.00    +0.000 C 
ATOM     22  O   UNL     1     -47.605  -4.097 -28.762  0.00  0.00    +0.000 OA
ATOM     23  N   UNL     1     -45.751  -5.426 -29.264  0.00  0.00    +0.000 NA
BRANCH  23  24
ATOM     24  C   UNL     1     -45.892  -6.264 -28.084  0.00  0.00    +0.000 C 
BRANCH  24  25
ATOM     25  C   UNL     1     -46.932  -7.345 -28.331  0.00  0.00    +0.000 C 
BRANCH  25  26
ATOM     26  C   UNL     1     -46.722  -8.019 -29.647  0.00  0.00    +0.000 A 
ATOM     27  C   UNL     1     -45.641  -8.894 -29.807  0.00  0.00    +0.000 A 
ATOM     28  C   UNL     1     -45.444  -9.548 -31.028  0.00  0.00    +0.000 A 
ATOM     29  C   UNL     1     -46.329  -9.333 -32.088  0.00  0.00    +0.000 A 
ATOM     30  C   UNL     1     -47.415  -8.467 -31.928  0.00  0.00    +0.000 A 
ATOM     31  C   UNL     1     -47.613  -7.813 -30.709  0.00  0.00    +0.000 A 
ATOM     32  O   UNL     1     -46.132  -9.981 -33.299  0.00  0.00    +0.000 OA
ENDBRANCH  25  26
ENDBRANCH  24  25
ENDBRANCH  23  24
ENDBRANCH  20  21
ENDBRANCH   1  20
TORSDOF 7
ENDMDL
