MODEL 1
REMARK VINA RESULT:      -7.2      0.000      0.000
REMARK  Name = ZINC000072242289 ZINC72242289 PubChem-95740500
REMARK  4 active torsions:
REMARK  status: ('A' for Active; 'I' for Inactive)
REMARK    1  A    between atoms: C_5  and  C_6
REMARK    2  A    between atoms: C_6  and  N_22
REMARK    3  A    between atoms: C_7  and  C_8
REMARK    4  A    between atoms: C_11  and  C_12
REMARK                            x       y       z     vdW  Elec       q    Type
REMARK                         _______ _______ _______ _____ _____    ______ ____
ROOT
ATOM      1  C   UNL     1     -46.023  -5.562 -27.372  0.00  0.00    +0.000 C 
ATOM      2  C   UNL     1     -45.072  -6.762 -27.273  0.00  0.00    +0.000 C 
ATOM      3  C   UNL     1     -45.580  -7.499 -26.098  0.00  0.00    +0.000 C 
ATOM      4  C   UNL     1     -47.095  -5.722 -26.277  0.00  0.00    +0.000 C 
ATOM      5  C   UNL     1     -47.548  -7.517 -24.501  0.00  0.00    +0.000 C 
ATOM      6  O   UNL     1     -45.071  -8.567 -25.670  0.00  0.00    +0.000 OA
ATOM      7  N   UNL     1     -46.709  -6.890 -25.509  0.00  0.00    +0.000 N 
ENDROOT
BRANCH   4   8
ATOM      8  C   UNL     1     -47.162  -4.502 -25.409  0.00  0.00    +0.000 A 
ATOM      9  C   UNL     1     -47.070  -4.598 -24.013  0.00  0.00    +0.000 A 
ATOM     10  C   UNL     1     -47.134  -3.445 -23.224  0.00  0.00    +0.000 A 
ATOM     11  C   UNL     1     -47.291  -2.194 -23.827  0.00  0.00    +0.000 A 
ATOM     12  C   UNL     1     -47.385  -2.096 -25.220  0.00  0.00    +0.000 A 
ATOM     13  C   UNL     1     -47.320  -3.248 -26.008  0.00  0.00    +0.000 A 
ATOM     14  F   UNL     1     -47.354  -1.077 -23.064  0.00  0.00    +0.000 F 
ENDBRANCH   4   8
BRANCH   1  15
ATOM     15  C   UNL     1     -46.655  -5.501 -28.723  0.00  0.00    +0.000 C 
ATOM     16  O   UNL     1     -47.137  -6.550 -29.227  0.00  0.00    +0.000 OA
ATOM     17  N   UNL     1     -46.710  -4.264 -29.436  0.00  0.00    +0.000 NA
BRANCH  17  18
ATOM     18  C   UNL     1     -47.311  -4.159 -30.755  0.00  0.00    +0.000 C 
BRANCH  18  23
ATOM     19  C   UNL     1     -44.281  -0.538 -32.094  0.00  0.00    +0.000 C 
ATOM     20  C   UNL     1     -45.176  -1.721 -32.194  0.00  0.00    +0.000 A 
ATOM     21  C   UNL     1     -45.493  -2.379 -33.366  0.00  0.00    +0.000 A 
ATOM     22  C   UNL     1     -46.346  -3.405 -32.988  0.00  0.00    +0.000 A 
ATOM     23  C   UNL     1     -46.470  -3.285 -31.617  0.00  0.00    +0.000 A 
ATOM     24  O   UNL     1     -45.769  -2.276 -31.169  0.00  0.00    +0.000 OA
ENDBRANCH  18  23
ENDBRANCH  17  18
ENDBRANCH   1  15
TORSDOF 4
ENDMDL
MODEL 2
REMARK VINA RESULT:      -6.7      3.799      7.708
REMARK  Name = ZINC000072242289 ZINC72242289 PubChem-95740500
REMARK  4 active torsions:
REMARK  status: ('A' for Active; 'I' for Inactive)
REMARK    1  A    between atoms: C_5  and  C_6
REMARK    2  A    between atoms: C_6  and  N_22
REMARK    3  A    between atoms: C_7  and  C_8
REMARK    4  A    between atoms: C_11  and  C_12
REMARK                            x       y       z     vdW  Elec       q    Type
REMARK                         _______ _______ _______ _____ _____    ______ ____
ROOT
ATOM      1  C   UNL     1     -46.342  -3.795 -32.088  0.00  0.00    +0.000 C 
ATOM      2  C   UNL     1     -47.314  -4.393 -33.115  0.00  0.00    +0.000 C 
ATOM      3  C   UNL     1     -46.417  -5.066 -34.075  0.00  0.00    +0.000 C 
ATOM      4  C   UNL     1     -44.919  -4.235 -32.478  0.00  0.00    +0.000 C 
ATOM      5  C   UNL     1     -43.981  -5.706 -34.360  0.00  0.00    +0.000 C 
ATOM      6  O   UNL     1     -46.823  -5.695 -35.087  0.00  0.00    +0.000 OA
ATOM      7  N   UNL     1     -45.052  -4.949 -33.734  0.00  0.00    +0.000 N 
ENDROOT
BRANCH   4   8
ATOM      8  C   UNL     1     -44.010  -3.052 -32.623  0.00  0.00    +0.000 A 
ATOM      9  C   UNL     1     -44.480  -1.833 -33.135  0.00  0.00    +0.000 A 
ATOM     10  C   UNL     1     -43.614  -0.743 -33.258  0.00  0.00    +0.000 A 
ATOM     11  C   UNL     1     -42.276  -0.866 -32.872  0.00  0.00    +0.000 A 
ATOM     12  C   UNL     1     -41.805  -2.080 -32.361  0.00  0.00    +0.000 A 
ATOM     13  C   UNL     1     -42.671  -3.170 -32.237  0.00  0.00    +0.000 A 
ATOM     14  F   UNL     1     -41.436   0.189 -32.991  0.00  0.00    +0.000 F 
ENDBRANCH   4   8
BRANCH   1  15
ATOM     15  C   UNL     1     -46.679  -4.260 -30.710  0.00  0.00    +0.000 C 
ATOM     16  O   UNL     1     -46.947  -3.409 -29.820  0.00  0.00    +0.000 OA
ATOM     17  N   UNL     1     -46.692  -5.656 -30.405  0.00  0.00    +0.000 NA
BRANCH  17  18
ATOM     18  C   UNL     1     -47.008  -6.152 -29.077  0.00  0.00    +0.000 C 
BRANCH  18  23
ATOM     19  C   UNL     1     -42.214  -6.587 -28.120  0.00  0.00    +0.000 C 
ATOM     20  C   UNL     1     -43.686  -6.593 -27.915  0.00  0.00    +0.000 A 
ATOM     21  C   UNL     1     -44.322  -6.915 -26.732  0.00  0.00    +0.000 A 
ATOM     22  C   UNL     1     -45.677  -6.788 -27.001  0.00  0.00    +0.000 A 
ATOM     23  C   UNL     1     -45.748  -6.395 -28.324  0.00  0.00    +0.000 A 
ATOM     24  O   UNL     1     -44.553  -6.289 -28.846  0.00  0.00    +0.000 OA
ENDBRANCH  18  23
ENDBRANCH  17  18
ENDBRANCH   1  15
TORSDOF 4
ENDMDL
MODEL 3
REMARK VINA RESULT:      -6.7      4.169      7.999
REMARK  Name = ZINC000072242289 ZINC72242289 PubChem-95740500
REMARK  4 active torsions:
REMARK  status: ('A' for Active; 'I' for Inactive)
REMARK    1  A    between atoms: C_5  and  C_6
REMARK    2  A    between atoms: C_6  and  N_22
REMARK    3  A    between atoms: C_7  and  C_8
REMARK    4  A    between atoms: C_11  and  C_12
REMARK                            x       y       z     vdW  Elec       q    Type
REMARK                         _______ _______ _______ _____ _____    ______ ____
ROOT
ATOM      1  C   UNL     1     -46.311  -3.694 -32.003  0.00  0.00    +0.000 C 
ATOM      2  C   UNL     1     -47.336  -4.227 -33.012  0.00  0.00    +0.000 C 
ATOM      3  C   UNL     1     -46.497  -4.901 -34.022  0.00  0.00    +0.000 C 
ATOM      4  C   UNL     1     -44.917  -4.171 -32.454  0.00  0.00    +0.000 C 
ATOM      5  C   UNL     1     -44.096  -5.616 -34.409  0.00  0.00    +0.000 C 
ATOM      6  O   UNL     1     -46.959  -5.485 -35.036  0.00  0.00    +0.000 OA
ATOM      7  N   UNL     1     -45.118  -4.841 -33.725  0.00  0.00    +0.000 N 
ENDROOT
BRANCH   4   8
ATOM      8  C   UNL     1     -43.973  -3.016 -32.596  0.00  0.00    +0.000 A 
ATOM      9  C   UNL     1     -42.622  -3.133 -32.234  0.00  0.00    +0.000 A 
ATOM     10  C   UNL     1     -41.761  -2.041 -32.377  0.00  0.00    +0.000 A 
ATOM     11  C   UNL     1     -42.245  -0.830 -32.879  0.00  0.00    +0.000 A 
ATOM     12  C   UNL     1     -43.591  -0.711 -33.240  0.00  0.00    +0.000 A 
ATOM     13  C   UNL     1     -44.452  -1.802 -33.098  0.00  0.00    +0.000 A 
ATOM     14  F   UNL     1     -41.410   0.228 -33.017  0.00  0.00    +0.000 F 
ENDBRANCH   4   8
BRANCH   1  15
ATOM     15  C   UNL     1     -46.616  -4.189 -30.628  0.00  0.00    +0.000 C 
ATOM     16  O   UNL     1     -46.755  -3.359 -29.690  0.00  0.00    +0.000 OA
ATOM     17  N   UNL     1     -46.747  -5.590 -30.380  0.00  0.00    +0.000 NA
BRANCH  17  18
ATOM     18  C   UNL     1     -47.039  -6.115 -29.057  0.00  0.00    +0.000 C 
BRANCH  18  23
ATOM     19  C   UNL     1     -46.307 -10.776 -27.705  0.00  0.00    +0.000 C 
ATOM     20  C   UNL     1     -46.718  -9.607 -28.525  0.00  0.00    +0.000 A 
ATOM     21  C   UNL     1     -47.293  -9.680 -29.779  0.00  0.00    +0.000 A 
ATOM     22  C   UNL     1     -47.503  -8.363 -30.160  0.00  0.00    +0.000 A 
ATOM     23  C   UNL     1     -47.042  -7.603 -29.102  0.00  0.00    +0.000 A 
ATOM     24  O   UNL     1     -46.577  -8.363 -28.145  0.00  0.00    +0.000 OA
ENDBRANCH  18  23
ENDBRANCH  17  18
ENDBRANCH   1  15
TORSDOF 4
ENDMDL
