MODEL 1
REMARK VINA RESULT:      -7.3      0.000      0.000
REMARK  Name = ZINC000006281134 ZINC06281134 PubChem-40601604
REMARK  8 active torsions:
REMARK  status: ('A' for Active; 'I' for Inactive)
REMARK    1  A    between atoms: C_5  and  C_6
REMARK    2  A    between atoms: C_7  and  C_8
REMARK    3  A    between atoms: C_7  and  N_31
REMARK    4  A    between atoms: C_9  and  C_10
REMARK    5  A    between atoms: C_9  and  N_33
REMARK    6  A    between atoms: C_11  and  C_12
REMARK    7  A    between atoms: C_11  and  N_34
REMARK    8  A    between atoms: C_16  and  N_33
REMARK                            x       y       z     vdW  Elec       q    Type
REMARK                         _______ _______ _______ _____ _____    ______ ____
ROOT
ATOM      1  C   UNL     1     -45.597  -7.417 -32.364  0.00  0.00    +0.000 C 
ATOM      2  O   UNL     1     -44.461  -7.745 -32.800  0.00  0.00    +0.000 OA
ATOM      3  N   UNL     1     -45.784  -6.161 -31.679  0.00  0.00    +0.000 N 
ENDROOT
BRANCH   3   4
ATOM      4  C   UNL     1     -44.857  -5.060 -31.828  0.00  0.00    +0.000 A 
ATOM      5  C   UNL     1     -45.252  -3.858 -32.436  0.00  0.00    +0.000 A 
ATOM      6  C   UNL     1     -44.351  -2.801 -32.560  0.00  0.00    +0.000 A 
ATOM      7  C   UNL     1     -44.732  -1.607 -33.177  0.00  0.00    +0.000 A 
ATOM      8  C   UNL     1     -43.810  -0.562 -33.301  0.00  0.00    +0.000 A 
ATOM      9  C   UNL     1     -42.508  -0.713 -32.809  0.00  0.00    +0.000 A 
ATOM     10  C   UNL     1     -42.122  -1.907 -32.191  0.00  0.00    +0.000 A 
ATOM     11  C   UNL     1     -43.039  -2.954 -32.066  0.00  0.00    +0.000 A 
ATOM     12  C   UNL     1     -43.542  -5.159 -31.342  0.00  0.00    +0.000 A 
ATOM     13  N   UNL     1     -42.672  -4.119 -31.474  0.00  0.00    +0.000 NA
ENDBRANCH   3   4
BRANCH   1  14
ATOM     14  C   UNL     1     -46.734  -8.379 -32.520  0.00  0.00    +0.000 C 
BRANCH  14  18
ATOM     15  C   UNL     1     -46.016 -11.364 -30.815  0.00  0.00    +0.000 A 
ATOM     16  N   UNL     1     -45.728 -11.755 -32.074  0.00  0.00    +0.000 NA
ATOM     17  N   UNL     1     -45.954 -10.685 -32.820  0.00  0.00    +0.000 NA
ATOM     18  N   UNL     1     -46.350  -9.696 -32.038  0.00  0.00    +0.000 N 
ATOM     19  N   UNL     1     -46.412 -10.077 -30.775  0.00  0.00    +0.000 NA
BRANCH  15  24
ATOM     20  C   UNL     1     -46.184 -12.798 -26.147  0.00  0.00    +0.000 C 
ATOM     21  C   UNL     1     -45.979 -12.850 -27.617  0.00  0.00    +0.000 A 
ATOM     22  C   UNL     1     -45.553 -13.959 -28.322  0.00  0.00    +0.000 A 
ATOM     23  C   UNL     1     -45.507 -13.553 -29.646  0.00  0.00    +0.000 A 
ATOM     24  C   UNL     1     -45.908 -12.227 -29.636  0.00  0.00    +0.000 A 
ATOM     25  O   UNL     1     -46.182 -11.835 -28.418  0.00  0.00    +0.000 OA
ENDBRANCH  15  24
ENDBRANCH  14  18
ENDBRANCH   1  14
BRANCH   3  26
ATOM     26  C   UNL     1     -46.922  -6.016 -30.769  0.00  0.00    +0.000 C 
BRANCH  26  27
ATOM     27  C   UNL     1     -46.482  -6.193 -29.354  0.00  0.00    +0.000 C 
ATOM     28  O   UNL     1     -45.807  -7.206 -29.029  0.00  0.00    +0.000 OA
ATOM     29  N   UNL     1     -46.868  -5.231 -28.374  0.00  0.00    +0.000 NA
BRANCH  29  30
ATOM     30  C   UNL     1     -46.496  -5.365 -26.974  0.00  0.00    +0.000 C 
BRANCH  30  31
ATOM     31  C   UNL     1     -47.390  -4.483 -26.121  0.00  0.00    +0.000 C 
ATOM     32  C   UNL     1     -47.381  -3.072 -26.661  0.00  0.00    +0.000 C 
ATOM     33  C   UNL     1     -47.347  -2.216 -25.429  0.00  0.00    +0.000 C 
ATOM     34  C   UNL     1     -47.345  -3.213 -24.294  0.00  0.00    +0.000 C 
ATOM     35  O   UNL     1     -46.926  -4.453 -24.795  0.00  0.00    +0.000 OA
ENDBRANCH  30  31
ENDBRANCH  29  30
ENDBRANCH  26  27
ENDBRANCH   3  26
TORSDOF 8
ENDMDL
MODEL 2
REMARK VINA RESULT:      -7.3      8.605     13.268
REMARK  Name = ZINC000006281134 ZINC06281134 PubChem-40601604
REMARK  8 active torsions:
REMARK  status: ('A' for Active; 'I' for Inactive)
REMARK    1  A    between atoms: C_5  and  C_6
REMARK    2  A    between atoms: C_7  and  C_8
REMARK    3  A    between atoms: C_7  and  N_31
REMARK    4  A    between atoms: C_9  and  C_10
REMARK    5  A    between atoms: C_9  and  N_33
REMARK    6  A    between atoms: C_11  and  C_12
REMARK    7  A    between atoms: C_11  and  N_34
REMARK    8  A    between atoms: C_16  and  N_33
REMARK                            x       y       z     vdW  Elec       q    Type
REMARK                         _______ _______ _______ _____ _____    ______ ____
ROOT
ATOM      1  C   UNL     1     -44.565 -18.308 -25.245  0.00  0.00    +0.000 C 
ATOM      2  O   UNL     1     -45.669 -18.618 -25.767  0.00  0.00    +0.000 OA
ATOM      3  N   UNL     1     -43.934 -17.048 -25.557  0.00  0.00    +0.000 N 
ENDROOT
BRANCH   3   4
ATOM      4  C   UNL     1     -44.679 -15.930 -26.093  0.00  0.00    +0.000 A 
ATOM      5  C   UNL     1     -44.508 -15.516 -27.423  0.00  0.00    +0.000 A 
ATOM      6  C   UNL     1     -45.244 -14.446 -27.929  0.00  0.00    +0.000 A 
ATOM      7  C   UNL     1     -45.068 -14.018 -29.247  0.00  0.00    +0.000 A 
ATOM      8  C   UNL     1     -45.809 -12.935 -29.733  0.00  0.00    +0.000 A 
ATOM      9  C   UNL     1     -46.724 -12.280 -28.900  0.00  0.00    +0.000 A 
ATOM     10  C   UNL     1     -46.903 -12.705 -27.578  0.00  0.00    +0.000 A 
ATOM     11  C   UNL     1     -46.164 -13.785 -27.089  0.00  0.00    +0.000 A 
ATOM     12  C   UNL     1     -45.616 -15.246 -25.299  0.00  0.00    +0.000 A 
ATOM     13  N   UNL     1     -46.325 -14.200 -25.806  0.00  0.00    +0.000 NA
ENDBRANCH   3   4
BRANCH   1  14
ATOM     14  C   UNL     1     -43.893 -19.296 -24.341  0.00  0.00    +0.000 C 
BRANCH  14  18
ATOM     15  C   UNL     1     -45.066 -18.193 -21.220  0.00  0.00    +0.000 A 
ATOM     16  N   UNL     1     -44.364 -19.274 -20.822  0.00  0.00    +0.000 NA
ATOM     17  N   UNL     1     -43.854 -19.775 -21.936  0.00  0.00    +0.000 NA
ATOM     18  N   UNL     1     -44.228 -19.020 -22.953  0.00  0.00    +0.000 N 
ATOM     19  N   UNL     1     -44.995 -18.022 -22.554  0.00  0.00    +0.000 NA
BRANCH  15  24
ATOM     20  C   UNL     1     -46.806 -14.091 -19.215  0.00  0.00    +0.000 C 
ATOM     21  C   UNL     1     -46.563 -15.538 -19.447  0.00  0.00    +0.000 A 
ATOM     22  C   UNL     1     -47.104 -16.564 -18.698  0.00  0.00    +0.000 A 
ATOM     23  C   UNL     1     -46.612 -17.728 -19.268  0.00  0.00    +0.000 A 
ATOM     24  C   UNL     1     -45.810 -17.311 -20.317  0.00  0.00    +0.000 A 
ATOM     25  O   UNL     1     -45.799 -16.004 -20.401  0.00  0.00    +0.000 OA
ENDBRANCH  15  24
ENDBRANCH  14  18
ENDBRANCH   1  14
BRANCH   3  26
ATOM     26  C   UNL     1     -42.489 -16.916 -25.366  0.00  0.00    +0.000 C 
BRANCH  26  27
ATOM     27  C   UNL     1     -41.766 -17.244 -26.631  0.00  0.00    +0.000 C 
ATOM     28  O   UNL     1     -41.103 -16.352 -27.224  0.00  0.00    +0.000 OA
ATOM     29  N   UNL     1     -41.872 -18.557 -27.179  0.00  0.00    +0.000 NA
BRANCH  29  30
ATOM     30  C   UNL     1     -41.217 -18.928 -28.424  0.00  0.00    +0.000 C 
BRANCH  30  31
ATOM     31  C   UNL     1     -42.224 -19.574 -29.359  0.00  0.00    +0.000 C 
ATOM     32  C   UNL     1     -41.814 -21.000 -29.643  0.00  0.00    +0.000 C 
ATOM     33  C   UNL     1     -42.109 -21.174 -31.104  0.00  0.00    +0.000 C 
ATOM     34  C   UNL     1     -42.666 -19.834 -31.525  0.00  0.00    +0.000 C 
ATOM     35  O   UNL     1     -42.277 -18.877 -30.577  0.00  0.00    +0.000 OA
ENDBRANCH  30  31
ENDBRANCH  29  30
ENDBRANCH  26  27
ENDBRANCH   3  26
TORSDOF 8
ENDMDL
MODEL 3
REMARK VINA RESULT:      -7.0      2.180      3.182
REMARK  Name = ZINC000006281134 ZINC06281134 PubChem-40601604
REMARK  8 active torsions:
REMARK  status: ('A' for Active; 'I' for Inactive)
REMARK    1  A    between atoms: C_5  and  C_6
REMARK    2  A    between atoms: C_7  and  C_8
REMARK    3  A    between atoms: C_7  and  N_31
REMARK    4  A    between atoms: C_9  and  C_10
REMARK    5  A    between atoms: C_9  and  N_33
REMARK    6  A    between atoms: C_11  and  C_12
REMARK    7  A    between atoms: C_11  and  N_34
REMARK    8  A    between atoms: C_16  and  N_33
REMARK                            x       y       z     vdW  Elec       q    Type
REMARK                         _______ _______ _______ _____ _____    ______ ____
ROOT
ATOM      1  C   UNL     1     -46.444  -7.099 -32.412  0.00  0.00    +0.000 C 
ATOM      2  O   UNL     1     -45.380  -7.296 -33.060  0.00  0.00    +0.000 OA
ATOM      3  N   UNL     1     -46.705  -5.817 -31.804  0.00  0.00    +0.000 N 
ENDROOT
BRANCH   3   4
ATOM      4  C   UNL     1     -46.038  -4.611 -32.241  0.00  0.00    +0.000 A 
ATOM      5  C   UNL     1     -44.726  -4.320 -31.834  0.00  0.00    +0.000 A 
ATOM      6  C   UNL     1     -44.092  -3.159 -32.276  0.00  0.00    +0.000 A 
ATOM      7  C   UNL     1     -42.792  -2.855 -31.863  0.00  0.00    +0.000 A 
ATOM      8  C   UNL     1     -42.177  -1.681 -32.309  0.00  0.00    +0.000 A 
ATOM      9  C   UNL     1     -42.862  -0.811 -33.167  0.00  0.00    +0.000 A 
ATOM     10  C   UNL     1     -44.164  -1.112 -33.582  0.00  0.00    +0.000 A 
ATOM     11  C   UNL     1     -44.782  -2.283 -33.138  0.00  0.00    +0.000 A 
ATOM     12  C   UNL     1     -46.680  -3.711 -33.110  0.00  0.00    +0.000 A 
ATOM     13  N   UNL     1     -46.048  -2.580 -33.530  0.00  0.00    +0.000 NA
ENDBRANCH   3   4
BRANCH   1  14
ATOM     14  C   UNL     1     -47.401  -8.238 -32.237  0.00  0.00    +0.000 C 
BRANCH  14  18
ATOM     15  C   UNL     1     -45.978 -11.216 -31.037  0.00  0.00    +0.000 A 
ATOM     16  N   UNL     1     -45.428 -11.190 -32.269  0.00  0.00    +0.000 NA
ATOM     17  N   UNL     1     -45.891 -10.081 -32.822  0.00  0.00    +0.000 NA
ATOM     18  N   UNL     1     -46.677  -9.467 -31.955  0.00  0.00    +0.000 N 
ATOM     19  N   UNL     1     -46.768 -10.146 -30.826  0.00  0.00    +0.000 NA
BRANCH  15  24
ATOM     20  C   UNL     1     -43.773 -14.878 -28.670  0.00  0.00    +0.000 C 
ATOM     21  C   UNL     1     -44.793 -13.858 -29.025  0.00  0.00    +0.000 A 
ATOM     22  C   UNL     1     -45.983 -13.657 -28.352  0.00  0.00    +0.000 A 
ATOM     23  C   UNL     1     -46.607 -12.617 -29.023  0.00  0.00    +0.000 A 
ATOM     24  C   UNL     1     -45.745 -12.273 -30.050  0.00  0.00    +0.000 A 
ATOM     25  O   UNL     1     -44.674 -13.027 -30.028  0.00  0.00    +0.000 OA
ENDBRANCH  15  24
ENDBRANCH  14  18
ENDBRANCH   1  14
BRANCH   3  26
ATOM     26  C   UNL     1     -47.642  -5.747 -30.681  0.00  0.00    +0.000 C 
BRANCH  26  27
ATOM     27  C   UNL     1     -46.928  -5.999 -29.394  0.00  0.00    +0.000 C 
ATOM     28  O   UNL     1     -46.334  -5.054 -28.810  0.00  0.00    +0.000 OA
ATOM     29  N   UNL     1     -46.893  -7.321 -28.859  0.00  0.00    +0.000 NA
BRANCH  29  30
ATOM     30  C   UNL     1     -46.188  -7.635 -27.626  0.00  0.00    +0.000 C 
BRANCH  30  31
ATOM     31  C   UNL     1     -46.044  -9.141 -27.489  0.00  0.00    +0.000 C 
ATOM     32  C   UNL     1     -46.982  -9.647 -26.418  0.00  0.00    +0.000 C 
ATOM     33  C   UNL     1     -46.174 -10.683 -25.693  0.00  0.00    +0.000 C 
ATOM     34  C   UNL     1     -44.847 -10.681 -26.416  0.00  0.00    +0.000 C 
ATOM     35  O   UNL     1     -44.730  -9.475 -27.120  0.00  0.00    +0.000 OA
ENDBRANCH  30  31
ENDBRANCH  29  30
ENDBRANCH  26  27
ENDBRANCH   3  26
TORSDOF 8
ENDMDL
