MODEL 1
REMARK VINA RESULT:      -6.4      0.000      0.000
REMARK  Name = ZINC000096182884 ZINC96182884 PubChem-97458176
REMARK  3 active torsions:
REMARK  status: ('A' for Active; 'I' for Inactive)
REMARK    1  A    between atoms: C_2  and  C_13
REMARK    2  A    between atoms: C_3  and  C_6
REMARK    3  A    between atoms: C_7  and  N_20
REMARK                            x       y       z     vdW  Elec       q    Type
REMARK                         _______ _______ _______ _____ _____    ______ ____
ROOT
ATOM      1  C   UNL     1     -44.534  -6.462 -27.965  0.00  0.00    +0.000 C 
ATOM      2  C   UNL     1     -45.504  -6.542 -30.292  0.00  0.00    +0.000 C 
ATOM      3  C   UNL     1     -46.494  -5.793 -31.207  0.00  0.00    +0.000 C 
ATOM      4  C   UNL     1     -47.605  -4.703 -29.485  0.00  0.00    +0.000 C 
ATOM      5  C   UNL     1     -46.705  -5.312 -28.462  0.00  0.00    +0.000 C 
ATOM      6  N   UNL     1     -45.577  -6.075 -28.904  0.00  0.00    +0.000 N 
ATOM      7  O   UNL     1     -47.754  -5.559 -30.597  0.00  0.00    +0.000 OA
ATOM      8  O   UNL     1     -46.929  -5.134 -27.236  0.00  0.00    +0.000 OA
ENDROOT
BRANCH   2   9
ATOM      9  C   UNL     1     -45.729  -8.023 -30.369  0.00  0.00    +0.000 A 
ATOM     10  C   UNL     1     -46.943  -8.551 -29.916  0.00  0.00    +0.000 A 
ATOM     11  C   UNL     1     -47.178  -9.927 -29.985  0.00  0.00    +0.000 A 
ATOM     12  C   UNL     1     -46.201 -10.780 -30.508  0.00  0.00    +0.000 A 
ATOM     13  C   UNL     1     -44.988 -10.256 -30.963  0.00  0.00    +0.000 A 
ATOM     14  C   UNL     1     -44.752  -8.880 -30.895  0.00  0.00    +0.000 A 
ATOM     15  F   UNL     1     -46.430 -12.113 -30.574  0.00  0.00    +0.000 F 
ENDBRANCH   2   9
BRANCH   3  16
ATOM     16  C   UNL     1     -45.898  -4.583 -31.864  0.00  0.00    +0.000 C 
ATOM     17  N   UNL     1     -44.787  -3.906 -31.256  0.00  0.00    +0.000 NA
ATOM     18  O   UNL     1     -46.376  -4.190 -32.961  0.00  0.00    +0.000 OA
BRANCH  17  19
ATOM     19  C   UNL     1     -44.110  -2.746 -31.757  0.00  0.00    +0.000 A 
ATOM     20  C   UNL     1     -44.747  -1.500 -31.861  0.00  0.00    +0.000 A 
ATOM     21  C   UNL     1     -44.052  -0.390 -32.353  0.00  0.00    +0.000 A 
ATOM     22  C   UNL     1     -42.717  -0.520 -32.744  0.00  0.00    +0.000 A 
ATOM     23  C   UNL     1     -42.076  -1.758 -32.642  0.00  0.00    +0.000 A 
ATOM     24  C   UNL     1     -42.772  -2.867 -32.150  0.00  0.00    +0.000 A 
ATOM     25  F   UNL     1     -40.782  -1.883 -33.020  0.00  0.00    +0.000 F 
ENDBRANCH  17  19
ENDBRANCH   3  16
TORSDOF 3
ENDMDL
MODEL 2
REMARK VINA RESULT:      -6.4     14.742     16.174
REMARK  Name = ZINC000096182884 ZINC96182884 PubChem-97458176
REMARK  3 active torsions:
REMARK  status: ('A' for Active; 'I' for Inactive)
REMARK    1  A    between atoms: C_2  and  C_13
REMARK    2  A    between atoms: C_3  and  C_6
REMARK    3  A    between atoms: C_7  and  N_20
REMARK                            x       y       z     vdW  Elec       q    Type
REMARK                         _______ _______ _______ _____ _____    ______ ____
ROOT
ATOM      1  C   UNL     1     -41.955 -18.091 -21.084  0.00  0.00    +0.000 C 
ATOM      2  C   UNL     1     -44.470 -18.108 -21.269  0.00  0.00    +0.000 C 
ATOM      3  C   UNL     1     -45.734 -18.376 -20.427  0.00  0.00    +0.000 C 
ATOM      4  C   UNL     1     -44.648 -19.596 -18.778  0.00  0.00    +0.000 C 
ATOM      5  C   UNL     1     -43.326 -19.398 -19.443  0.00  0.00    +0.000 C 
ATOM      6  N   UNL     1     -43.247 -18.519 -20.571  0.00  0.00    +0.000 N 
ATOM      7  O   UNL     1     -45.692 -19.610 -19.728  0.00  0.00    +0.000 OA
ATOM      8  O   UNL     1     -42.301 -19.979 -19.000  0.00  0.00    +0.000 OA
ENDROOT
BRANCH   2   9
ATOM      9  C   UNL     1     -44.572 -18.779 -22.605  0.00  0.00    +0.000 A 
ATOM     10  C   UNL     1     -45.554 -18.355 -23.507  0.00  0.00    +0.000 A 
ATOM     11  C   UNL     1     -45.664 -18.961 -24.762  0.00  0.00    +0.000 A 
ATOM     12  C   UNL     1     -44.791 -19.993 -25.120  0.00  0.00    +0.000 A 
ATOM     13  C   UNL     1     -43.807 -20.418 -24.224  0.00  0.00    +0.000 A 
ATOM     14  C   UNL     1     -43.696 -19.812 -22.969  0.00  0.00    +0.000 A 
ATOM     15  F   UNL     1     -44.898 -20.579 -26.336  0.00  0.00    +0.000 F 
ENDBRANCH   2   9
BRANCH   3  16
ATOM     16  C   UNL     1     -46.143 -17.207 -19.580  0.00  0.00    +0.000 C 
ATOM     17  N   UNL     1     -45.394 -15.983 -19.628  0.00  0.00    +0.000 NA
ATOM     18  O   UNL     1     -47.162 -17.315 -18.847  0.00  0.00    +0.000 OA
BRANCH  17  19
ATOM     19  C   UNL     1     -45.657 -14.785 -18.887  0.00  0.00    +0.000 A 
ATOM     20  C   UNL     1     -45.197 -14.607 -17.573  0.00  0.00    +0.000 A 
ATOM     21  C   UNL     1     -45.472 -13.422 -16.882  0.00  0.00    +0.000 A 
ATOM     22  C   UNL     1     -46.208 -12.409 -17.501  0.00  0.00    +0.000 A 
ATOM     23  C   UNL     1     -46.669 -12.579 -18.810  0.00  0.00    +0.000 A 
ATOM     24  C   UNL     1     -46.393 -13.764 -19.499  0.00  0.00    +0.000 A 
ATOM     25  F   UNL     1     -47.382 -11.597 -19.409  0.00  0.00    +0.000 F 
ENDBRANCH  17  19
ENDBRANCH   3  16
TORSDOF 3
ENDMDL
MODEL 3
REMARK VINA RESULT:      -6.2     10.015     14.416
REMARK  Name = ZINC000096182884 ZINC96182884 PubChem-97458176
REMARK  3 active torsions:
REMARK  status: ('A' for Active; 'I' for Inactive)
REMARK    1  A    between atoms: C_2  and  C_13
REMARK    2  A    between atoms: C_3  and  C_6
REMARK    3  A    between atoms: C_7  and  N_20
REMARK                            x       y       z     vdW  Elec       q    Type
REMARK                         _______ _______ _______ _____ _____    ______ ____
ROOT
ATOM      1  C   UNL     1     -42.302 -14.634 -25.207  0.00  0.00    +0.000 C 
ATOM      2  C   UNL     1     -44.525 -15.794 -25.481  0.00  0.00    +0.000 C 
ATOM      3  C   UNL     1     -45.139 -17.205 -25.579  0.00  0.00    +0.000 C 
ATOM      4  C   UNL     1     -43.156 -18.271 -26.147  0.00  0.00    +0.000 C 
ATOM      5  C   UNL     1     -42.393 -16.990 -26.056  0.00  0.00    +0.000 C 
ATOM      6  N   UNL     1     -43.061 -15.825 -25.561  0.00  0.00    +0.000 N 
ATOM      7  O   UNL     1     -44.493 -18.034 -26.534  0.00  0.00    +0.000 OA
ATOM      8  O   UNL     1     -41.180 -16.952 -26.391  0.00  0.00    +0.000 OA
ENDROOT
BRANCH   2   9
ATOM      9  C   UNL     1     -45.098 -14.894 -26.534  0.00  0.00    +0.000 A 
ATOM     10  C   UNL     1     -46.083 -13.968 -26.175  0.00  0.00    +0.000 A 
ATOM     11  C   UNL     1     -46.627 -13.113 -27.139  0.00  0.00    +0.000 A 
ATOM     12  C   UNL     1     -46.185 -13.180 -28.464  0.00  0.00    +0.000 A 
ATOM     13  C   UNL     1     -45.199 -14.102 -28.826  0.00  0.00    +0.000 A 
ATOM     14  C   UNL     1     -44.655 -14.957 -27.863  0.00  0.00    +0.000 A 
ATOM     15  F   UNL     1     -46.712 -12.352 -29.396  0.00  0.00    +0.000 F 
ENDBRANCH   2   9
BRANCH   3  16
ATOM     16  C   UNL     1     -45.346 -17.859 -24.244  0.00  0.00    +0.000 C 
ATOM     17  N   UNL     1     -44.809 -17.258 -23.056  0.00  0.00    +0.000 NA
ATOM     18  O   UNL     1     -46.012 -18.926 -24.187  0.00  0.00    +0.000 OA
BRANCH  17  19
ATOM     19  C   UNL     1     -44.923 -17.753 -21.716  0.00  0.00    +0.000 A 
ATOM     20  C   UNL     1     -44.156 -18.834 -21.255  0.00  0.00    +0.000 A 
ATOM     21  C   UNL     1     -44.293 -19.289 -19.940  0.00  0.00    +0.000 A 
ATOM     22  C   UNL     1     -45.197 -18.665 -19.077  0.00  0.00    +0.000 A 
ATOM     23  C   UNL     1     -45.964 -17.587 -19.529  0.00  0.00    +0.000 A 
ATOM     24  C   UNL     1     -45.826 -17.134 -20.844  0.00  0.00    +0.000 A 
ATOM     25  F   UNL     1     -46.841 -16.982 -18.692  0.00  0.00    +0.000 F 
ENDBRANCH  17  19
ENDBRANCH   3  16
TORSDOF 3
ENDMDL
