MODEL 1
REMARK VINA RESULT:      -5.7      0.000      0.000
REMARK  Name = ZINC000408597752 PubChem-125609150
REMARK  9 active torsions:
REMARK  status: ('A' for Active; 'I' for Inactive)
REMARK    1  A    between atoms: C_2  and  C_3
REMARK    2  A    between atoms: C_2  and  O_20
REMARK    3  A    between atoms: C_3  and  N_25
REMARK    4  A    between atoms: C_4  and  C_5
REMARK    5  A    between atoms: C_5  and  N_26
REMARK    6  A    between atoms: C_6  and  N_26
REMARK    7  A    between atoms: C_12  and  S_29
REMARK    8  A    between atoms: C_18  and  O_24
REMARK    9  A    between atoms: N_26  and  S_29
REMARK                            x       y       z     vdW  Elec       q    Type
REMARK                         _______ _______ _______ _____ _____    ______ ____
ROOT
ATOM      1  N   UNL     1     -45.830  -6.627 -30.025  0.00  0.00    +0.000 N 
ENDROOT
BRANCH   1   2
ATOM      2  C   UNL     1     -46.245  -5.965 -28.811  0.00  0.00    +0.000 A 
ATOM      3  C   UNL     1     -47.051  -4.817 -28.857  0.00  0.00    +0.000 A 
ATOM      4  C   UNL     1     -47.454  -4.181 -27.681  0.00  0.00    +0.000 A 
ATOM      5  C   UNL     1     -47.056  -4.683 -26.439  0.00  0.00    +0.000 A 
ATOM      6  C   UNL     1     -46.249  -5.830 -26.377  0.00  0.00    +0.000 A 
ATOM      7  C   UNL     1     -45.850  -6.461 -27.558  0.00  0.00    +0.000 A 
ATOM      8 CL   UNL     1     -47.585  -3.852 -24.985  0.00  0.00    +0.000 Cl
ATOM      9 CL   UNL     1     -45.720  -6.502 -24.844  0.00  0.00    +0.000 Cl
ENDBRANCH   1   2
BRANCH   1  12
ATOM     10  O   UNL     1     -43.375  -5.643 -30.071  0.00  0.00    +0.000 OA
ATOM     11  O   UNL     1     -44.034  -7.082 -31.935  0.00  0.00    +0.000 OA
ATOM     12  S   UNL     1     -44.509  -6.021 -30.982  0.00  0.00    +0.000 S 
BRANCH  12  13
ATOM     13  C   UNL     1     -45.037  -4.623 -31.914  0.00  0.00    +0.000 A 
ATOM     14  C   UNL     1     -44.562  -3.353 -31.569  0.00  0.00    +0.000 A 
ATOM     15  C   UNL     1     -44.976  -2.226 -32.284  0.00  0.00    +0.000 A 
ATOM     16  C   UNL     1     -44.466  -0.881 -31.909  0.00  0.00    +0.000 C 
ATOM     17  C   UNL     1     -45.868  -2.363 -33.347  0.00  0.00    +0.000 A 
ATOM     18  C   UNL     1     -46.347  -3.627 -33.697  0.00  0.00    +0.000 A 
ATOM     19  C   UNL     1     -45.937  -4.768 -32.986  0.00  0.00    +0.000 A 
BRANCH  19  21
ATOM     20  C   UNL     1     -46.201  -6.622 -34.607  0.00  0.00    +0.000 C 
ATOM     21  O   UNL     1     -46.410  -6.040 -33.328  0.00  0.00    +0.000 OA
ENDBRANCH  19  21
ENDBRANCH  12  13
ENDBRANCH   1  12
BRANCH   1  22
ATOM     22  C   UNL     1     -46.489  -7.853 -30.462  0.00  0.00    +0.000 C 
BRANCH  22  23
ATOM     23  C   UNL     1     -45.986  -9.014 -29.676  0.00  0.00    +0.000 C 
ATOM     24  O   UNL     1     -44.764  -9.313 -29.719  0.00  0.00    +0.000 OA
ATOM     25  N   UNL     1     -46.900  -9.795 -28.906  0.00  0.00    +0.000 NA
BRANCH  25  26
ATOM     26  C   UNL     1     -46.468 -10.951 -28.137  0.00  0.00    +0.000 C 
BRANCH  26  27
ATOM     27  C   UNL     1     -46.960 -10.831 -26.708  0.00  0.00    +0.000 C 
BRANCH  27  29
ATOM     28  C   UNL     1     -45.813 -11.816 -25.102  0.00  0.00    +0.000 C 
ATOM     29  O   UNL     1     -46.809 -12.051 -26.048  0.00  0.00    +0.000 OA
ENDBRANCH  27  29
ENDBRANCH  26  27
ENDBRANCH  25  26
ENDBRANCH  22  23
ENDBRANCH   1  22
TORSDOF 9
ENDMDL
MODEL 2
REMARK VINA RESULT:      -5.7      2.386      3.429
REMARK  Name = ZINC000408597752 PubChem-125609150
REMARK  9 active torsions:
REMARK  status: ('A' for Active; 'I' for Inactive)
REMARK    1  A    between atoms: C_2  and  C_3
REMARK    2  A    between atoms: C_2  and  O_20
REMARK    3  A    between atoms: C_3  and  N_25
REMARK    4  A    between atoms: C_4  and  C_5
REMARK    5  A    between atoms: C_5  and  N_26
REMARK    6  A    between atoms: C_6  and  N_26
REMARK    7  A    between atoms: C_12  and  S_29
REMARK    8  A    between atoms: C_18  and  O_24
REMARK    9  A    between atoms: N_26  and  S_29
REMARK                            x       y       z     vdW  Elec       q    Type
REMARK                         _______ _______ _______ _____ _____    ______ ____
ROOT
ATOM      1  N   UNL     1     -46.059  -6.616 -31.299  0.00  0.00    +0.000 N 
ENDROOT
BRANCH   1   2
ATOM      2  C   UNL     1     -46.319  -6.024 -30.009  0.00  0.00    +0.000 A 
ATOM      3  C   UNL     1     -47.217  -4.952 -29.878  0.00  0.00    +0.000 A 
ATOM      4  C   UNL     1     -47.470  -4.385 -28.627  0.00  0.00    +0.000 A 
ATOM      5  C   UNL     1     -46.830  -4.878 -27.488  0.00  0.00    +0.000 A 
ATOM      6  C   UNL     1     -45.929  -5.949 -27.604  0.00  0.00    +0.000 A 
ATOM      7  C   UNL     1     -45.680  -6.513 -28.858  0.00  0.00    +0.000 A 
ATOM      8 CL   UNL     1     -47.178  -4.134 -25.936  0.00  0.00    +0.000 Cl
ATOM      9 CL   UNL     1     -45.097  -6.607 -26.206  0.00  0.00    +0.000 Cl
ENDBRANCH   1   2
BRANCH   1  12
ATOM     10  O   UNL     1     -43.420  -6.525 -31.458  0.00  0.00    +0.000 OA
ATOM     11  O   UNL     1     -44.648  -6.927 -33.534  0.00  0.00    +0.000 OA
ATOM     12  S   UNL     1     -44.659  -6.174 -32.234  0.00  0.00    +0.000 S 
BRANCH  12  13
ATOM     13  C   UNL     1     -44.694  -4.448 -32.583  0.00  0.00    +0.000 A 
ATOM     14  C   UNL     1     -43.587  -3.660 -32.249  0.00  0.00    +0.000 A 
ATOM     15  C   UNL     1     -43.595  -2.287 -32.503  0.00  0.00    +0.000 A 
ATOM     16  C   UNL     1     -42.414  -1.458 -32.143  0.00  0.00    +0.000 C 
ATOM     17  C   UNL     1     -44.711  -1.693 -33.093  0.00  0.00    +0.000 A 
ATOM     18  C   UNL     1     -45.819  -2.473 -33.430  0.00  0.00    +0.000 A 
ATOM     19  C   UNL     1     -45.822  -3.855 -33.180  0.00  0.00    +0.000 A 
BRANCH  19  21
ATOM     20  C   UNL     1     -47.256  -4.985 -34.853  0.00  0.00    +0.000 C 
ATOM     21  O   UNL     1     -46.928  -4.647 -33.513  0.00  0.00    +0.000 OA
ENDBRANCH  19  21
ENDBRANCH  12  13
ENDBRANCH   1  12
BRANCH   1  22
ATOM     22  C   UNL     1     -46.949  -7.639 -31.839  0.00  0.00    +0.000 C 
BRANCH  22  23
ATOM     23  C   UNL     1     -46.308  -8.980 -31.742  0.00  0.00    +0.000 C 
ATOM     24  O   UNL     1     -45.763  -9.334 -30.663  0.00  0.00    +0.000 OA
ATOM     25  N   UNL     1     -46.290  -9.838 -32.882  0.00  0.00    +0.000 NA
BRANCH  25  26
ATOM     26  C   UNL     1     -45.660 -11.148 -32.851  0.00  0.00    +0.000 C 
BRANCH  26  27
ATOM     27  C   UNL     1     -45.300 -11.578 -34.260  0.00  0.00    +0.000 C 
BRANCH  27  29
ATOM     28  C   UNL     1     -46.771 -11.787 -35.892  0.00  0.00    +0.000 C 
ATOM     29  O   UNL     1     -46.280 -12.437 -34.761  0.00  0.00    +0.000 OA
ENDBRANCH  27  29
ENDBRANCH  26  27
ENDBRANCH  25  26
ENDBRANCH  22  23
ENDBRANCH   1  22
TORSDOF 9
ENDMDL
MODEL 3
REMARK VINA RESULT:      -5.6     10.521     13.750
REMARK  Name = ZINC000408597752 PubChem-125609150
REMARK  9 active torsions:
REMARK  status: ('A' for Active; 'I' for Inactive)
REMARK    1  A    between atoms: C_2  and  C_3
REMARK    2  A    between atoms: C_2  and  O_20
REMARK    3  A    between atoms: C_3  and  N_25
REMARK    4  A    between atoms: C_4  and  C_5
REMARK    5  A    between atoms: C_5  and  N_26
REMARK    6  A    between atoms: C_6  and  N_26
REMARK    7  A    between atoms: C_12  and  S_29
REMARK    8  A    between atoms: C_18  and  O_24
REMARK    9  A    between atoms: N_26  and  S_29
REMARK                            x       y       z     vdW  Elec       q    Type
REMARK                         _______ _______ _______ _____ _____    ______ ____
ROOT
ATOM      1  N   UNL     1     -44.640 -19.148 -23.552  0.00  0.00    +0.000 N 
ENDROOT
BRANCH   1   2
ATOM      2  C   UNL     1     -45.091 -18.446 -22.375  0.00  0.00    +0.000 A 
ATOM      3  C   UNL     1     -45.768 -19.123 -21.348  0.00  0.00    +0.000 A 
ATOM      4  C   UNL     1     -46.198 -18.442 -20.208  0.00  0.00    +0.000 A 
ATOM      5  C   UNL     1     -45.959 -17.072 -20.075  0.00  0.00    +0.000 A 
ATOM      6  C   UNL     1     -45.285 -16.381 -21.094  0.00  0.00    +0.000 A 
ATOM      7  C   UNL     1     -44.856 -17.069 -22.232  0.00  0.00    +0.000 A 
ATOM      8 CL   UNL     1     -46.519 -16.255 -18.625  0.00  0.00    +0.000 Cl
ATOM      9 CL   UNL     1     -44.960 -14.659 -20.979  0.00  0.00    +0.000 Cl
ENDBRANCH   1   2
BRANCH   1  12
ATOM     10  O   UNL     1     -44.825 -19.824 -26.103  0.00  0.00    +0.000 OA
ATOM     11  O   UNL     1     -46.766 -18.727 -25.098  0.00  0.00    +0.000 OA
ATOM     12  S   UNL     1     -45.264 -18.764 -25.131  0.00  0.00    +0.000 S 
BRANCH  12  13
ATOM     13  C   UNL     1     -44.673 -17.185 -25.640  0.00  0.00    +0.000 A 
ATOM     14  C   UNL     1     -45.549 -16.094 -25.637  0.00  0.00    +0.000 A 
ATOM     15  C   UNL     1     -45.109 -14.833 -26.049  0.00  0.00    +0.000 A 
ATOM     16  C   UNL     1     -46.048 -13.681 -26.044  0.00  0.00    +0.000 C 
ATOM     17  C   UNL     1     -43.790 -14.657 -26.467  0.00  0.00    +0.000 A 
ATOM     18  C   UNL     1     -42.910 -15.742 -26.472  0.00  0.00    +0.000 A 
ATOM     19  C   UNL     1     -43.341 -17.013 -26.060  0.00  0.00    +0.000 A 
BRANCH  19  21
ATOM     20  C   UNL     1     -41.055 -17.965 -26.008  0.00  0.00    +0.000 C 
ATOM     21  O   UNL     1     -42.468 -18.108 -26.061  0.00  0.00    +0.000 OA
ENDBRANCH  19  21
ENDBRANCH  12  13
ENDBRANCH   1  12
BRANCH   1  22
ATOM     22  C   UNL     1     -43.612 -20.179 -23.453  0.00  0.00    +0.000 C 
BRANCH  22  23
ATOM     23  C   UNL     1     -42.573 -19.773 -22.466  0.00  0.00    +0.000 C 
ATOM     24  O   UNL     1     -41.851 -18.767 -22.699  0.00  0.00    +0.000 OA
ATOM     25  N   UNL     1     -42.382 -20.546 -21.281  0.00  0.00    +0.000 NA
BRANCH  25  26
ATOM     26  C   UNL     1     -41.369 -20.209 -20.296  0.00  0.00    +0.000 C 
BRANCH  26  27
ATOM     27  C   UNL     1     -41.805 -20.691 -18.926  0.00  0.00    +0.000 C 
BRANCH  27  29
ATOM     28  C   UNL     1     -43.524 -19.642 -18.025  0.00  0.00    +0.000 C 
ATOM     29  O   UNL     1     -43.199 -20.716 -18.851  0.00  0.00    +0.000 OA
ENDBRANCH  27  29
ENDBRANCH  26  27
ENDBRANCH  25  26
ENDBRANCH  22  23
ENDBRANCH   1  22
TORSDOF 9
ENDMDL
