MODEL 1
REMARK VINA RESULT:      -6.3      0.000      0.000
REMARK  Name = ZINC000072238206 ZINC72238206 PubChem-95738335
REMARK  4 active torsions:
REMARK  status: ('A' for Active; 'I' for Inactive)
REMARK    1  A    between atoms: C_2  and  N_20
REMARK    2  A    between atoms: C_4  and  N_22
REMARK    3  A    between atoms: C_6  and  C_7
REMARK    4  A    between atoms: C_11  and  C_12
REMARK                            x       y       z     vdW  Elec       q    Type
REMARK                         _______ _______ _______ _____ _____    ______ ____
ROOT
ATOM      1  C   UNL     1     -46.162 -17.799 -20.449  0.00  0.00    +0.000 C 
ATOM      2  C   UNL     1     -46.589 -19.176 -19.937  0.00  0.00    +0.000 C 
ATOM      3  C   UNL     1     -45.688 -19.666 -18.810  0.00  0.00    +0.000 C 
ATOM      4  C   UNL     1     -44.244 -19.554 -19.181  0.00  0.00    +0.000 C 
ATOM      5  C   UNL     1     -44.709 -17.789 -20.948  0.00  0.00    +0.000 C 
ATOM      6  C   UNL     1     -42.368 -18.213 -20.153  0.00  0.00    +0.000 C 
ATOM      7  N   UNL     1     -43.791 -18.507 -20.056  0.00  0.00    +0.000 N 
ATOM      8  O   UNL     1     -43.420 -20.363 -18.676  0.00  0.00    +0.000 OA
ENDROOT
BRANCH   5   9
ATOM      9  C   UNL     1     -44.604 -18.299 -22.356  0.00  0.00    +0.000 A 
ATOM     10  C   UNL     1     -43.910 -19.482 -22.652  0.00  0.00    +0.000 A 
ATOM     11  C   UNL     1     -43.817 -19.930 -23.973  0.00  0.00    +0.000 A 
ATOM     12  C   UNL     1     -44.416 -19.198 -25.003  0.00  0.00    +0.000 A 
ATOM     13  C   UNL     1     -45.105 -18.016 -24.711  0.00  0.00    +0.000 A 
ATOM     14  C   UNL     1     -45.196 -17.568 -23.390  0.00  0.00    +0.000 A 
ATOM     15  C   UNL     1     -44.318 -19.674 -26.407  0.00  0.00    +0.000 C 
ENDBRANCH   5   9
BRANCH   1  16
ATOM     16  C   UNL     1     -46.425 -16.712 -19.453  0.00  0.00    +0.000 C 
ATOM     17  N   UNL     1     -45.597 -15.541 -19.425  0.00  0.00    +0.000 NA
ATOM     18  O   UNL     1     -47.370 -16.854 -18.633  0.00  0.00    +0.000 OA
BRANCH  17  20
ATOM     19  C   UNL     1     -46.045 -13.154 -18.888  0.00  0.00    +0.000 A 
ATOM     20  C   UNL     1     -45.743 -14.445 -18.519  0.00  0.00    +0.000 A 
ATOM     21  C   UNL     1     -45.608 -14.471 -17.143  0.00  0.00    +0.000 A 
ATOM     22  N   UNL     1     -46.090 -12.447 -17.743  0.00  0.00    +0.000 N 
ATOM     23  N   UNL     1     -45.828 -13.217 -16.699  0.00  0.00    +0.000 NA
BRANCH  22  25
ATOM     24  C   UNL     1     -46.962 -10.503 -18.930  0.00  0.00    +0.000 C 
ATOM     25  C   UNL     1     -46.352 -11.022 -17.641  0.00  0.00    +0.000 C 
ENDBRANCH  22  25
ENDBRANCH  17  20
ENDBRANCH   1  16
TORSDOF 4
ENDMDL
MODEL 2
REMARK VINA RESULT:      -6.0      4.699      6.986
REMARK  Name = ZINC000072238206 ZINC72238206 PubChem-95738335
REMARK  4 active torsions:
REMARK  status: ('A' for Active; 'I' for Inactive)
REMARK    1  A    between atoms: C_2  and  N_20
REMARK    2  A    between atoms: C_4  and  N_22
REMARK    3  A    between atoms: C_6  and  C_7
REMARK    4  A    between atoms: C_11  and  C_12
REMARK                            x       y       z     vdW  Elec       q    Type
REMARK                         _______ _______ _______ _____ _____    ______ ____
ROOT
ATOM      1  C   UNL     1     -44.826 -16.009 -23.582  0.00  0.00    +0.000 C 
ATOM      2  C   UNL     1     -43.332 -15.874 -23.881  0.00  0.00    +0.000 C 
ATOM      3  C   UNL     1     -42.951 -16.555 -25.189  0.00  0.00    +0.000 C 
ATOM      4  C   UNL     1     -43.479 -17.953 -25.247  0.00  0.00    +0.000 C 
ATOM      5  C   UNL     1     -45.276 -17.477 -23.516  0.00  0.00    +0.000 C 
ATOM      6  C   UNL     1     -45.374 -19.554 -24.917  0.00  0.00    +0.000 C 
ATOM      7  N   UNL     1     -44.712 -18.299 -24.592  0.00  0.00    +0.000 N 
ATOM      8  O   UNL     1     -42.853 -18.814 -25.922  0.00  0.00    +0.000 OA
ENDROOT
BRANCH   5   9
ATOM      9  C   UNL     1     -44.997 -18.080 -22.171  0.00  0.00    +0.000 A 
ATOM     10  C   UNL     1     -43.821 -18.807 -21.929  0.00  0.00    +0.000 A 
ATOM     11  C   UNL     1     -43.588 -19.369 -20.670  0.00  0.00    +0.000 A 
ATOM     12  C   UNL     1     -44.529 -19.208 -19.649  0.00  0.00    +0.000 A 
ATOM     13  C   UNL     1     -45.704 -18.487 -19.888  0.00  0.00    +0.000 A 
ATOM     14  C   UNL     1     -45.936 -17.926 -21.147  0.00  0.00    +0.000 A 
ATOM     15  C   UNL     1     -44.282 -19.804 -18.310  0.00  0.00    +0.000 C 
ENDBRANCH   5   9
BRANCH   1  16
ATOM     16  C   UNL     1     -45.671 -15.201 -24.519  0.00  0.00    +0.000 C 
ATOM     17  N   UNL     1     -45.087 -14.137 -25.283  0.00  0.00    +0.000 NA
ATOM     18  O   UNL     1     -46.900 -15.460 -24.608  0.00  0.00    +0.000 OA
BRANCH  17  20
ATOM     19  C   UNL     1     -46.080 -13.618 -27.505  0.00  0.00    +0.000 A 
ATOM     20  C   UNL     1     -45.790 -13.293 -26.200  0.00  0.00    +0.000 A 
ATOM     21  C   UNL     1     -46.291 -12.027 -25.958  0.00  0.00    +0.000 A 
ATOM     22  N   UNL     1     -46.744 -12.561 -28.007  0.00  0.00    +0.000 N 
ATOM     23  N   UNL     1     -46.872 -11.606 -27.099  0.00  0.00    +0.000 NA
BRANCH  22  25
ATOM     24  C   UNL     1     -46.192 -12.949 -30.351  0.00  0.00    +0.000 C 
ATOM     25  C   UNL     1     -47.233 -12.440 -29.370  0.00  0.00    +0.000 C 
ENDBRANCH  22  25
ENDBRANCH  17  20
ENDBRANCH   1  16
TORSDOF 4
ENDMDL
MODEL 3
REMARK VINA RESULT:      -6.0     17.599     19.688
REMARK  Name = ZINC000072238206 ZINC72238206 PubChem-95738335
REMARK  4 active torsions:
REMARK  status: ('A' for Active; 'I' for Inactive)
REMARK    1  A    between atoms: C_2  and  N_20
REMARK    2  A    between atoms: C_4  and  N_22
REMARK    3  A    between atoms: C_6  and  C_7
REMARK    4  A    between atoms: C_11  and  C_12
REMARK                            x       y       z     vdW  Elec       q    Type
REMARK                         _______ _______ _______ _____ _____    ______ ____
ROOT
ATOM      1  C   UNL     1     -43.165  -2.763 -33.644  0.00  0.00    +0.000 C 
ATOM      2  C   UNL     1     -44.324  -1.765 -33.666  0.00  0.00    +0.000 C 
ATOM      3  C   UNL     1     -44.779  -1.394 -32.260  0.00  0.00    +0.000 C 
ATOM      4  C   UNL     1     -45.015  -2.612 -31.425  0.00  0.00    +0.000 C 
ATOM      5  C   UNL     1     -43.522  -4.054 -32.891  0.00  0.00    +0.000 C 
ATOM      6  C   UNL     1     -44.248  -4.857 -30.629  0.00  0.00    +0.000 C 
ATOM      7  N   UNL     1     -44.240  -3.806 -31.635  0.00  0.00    +0.000 N 
ATOM      8  O   UNL     1     -45.869  -2.562 -30.500  0.00  0.00    +0.000 OA
ENDROOT
BRANCH   5   9
ATOM      9  C   UNL     1     -44.275  -5.013 -33.764  0.00  0.00    +0.000 A 
ATOM     10  C   UNL     1     -45.678  -5.042 -33.773  0.00  0.00    +0.000 A 
ATOM     11  C   UNL     1     -46.358  -5.953 -34.588  0.00  0.00    +0.000 A 
ATOM     12  C   UNL     1     -45.638  -6.839 -35.395  0.00  0.00    +0.000 A 
ATOM     13  C   UNL     1     -44.240  -6.816 -35.386  0.00  0.00    +0.000 A 
ATOM     14  C   UNL     1     -43.561  -5.906 -34.570  0.00  0.00    +0.000 A 
ATOM     15  C   UNL     1     -46.359  -7.807 -36.262  0.00  0.00    +0.000 C 
ENDBRANCH   5   9
BRANCH   1  16
ATOM     16  C   UNL     1     -41.893  -2.150 -33.144  0.00  0.00    +0.000 C 
ATOM     17  N   UNL     1     -41.759  -0.724 -33.069  0.00  0.00    +0.000 NA
ATOM     18  O   UNL     1     -40.943  -2.906 -32.811  0.00  0.00    +0.000 OA
BRANCH  17  20
ATOM     19  C   UNL     1     -39.717   0.650 -33.436  0.00  0.00    +0.000 A 
ATOM     20  C   UNL     1     -40.596  -0.024 -32.618  0.00  0.00    +0.000 A 
ATOM     21  C   UNL     1     -40.144   0.101 -31.318  0.00  0.00    +0.000 A 
ATOM     22  N   UNL     1     -38.778   1.162 -32.619  0.00  0.00    +0.000 N 
ATOM     23  N   UNL     1     -39.017   0.838 -31.358  0.00  0.00    +0.000 NA
BRANCH  22  25
ATOM     24  C   UNL     1     -36.657   2.119 -31.887  0.00  0.00    +0.000 C 
ATOM     25  C   UNL     1     -37.623   1.936 -33.042  0.00  0.00    +0.000 C 
ENDBRANCH  22  25
ENDBRANCH  17  20
ENDBRANCH   1  16
TORSDOF 4
ENDMDL
