MODEL 1
REMARK VINA RESULT:      -5.5      0.000      0.000
REMARK  Name = ZINC000019936622 CSC046228778 PubChem-28463439
REMARK  7 active torsions:
REMARK  status: ('A' for Active; 'I' for Inactive)
REMARK    1  A    between atoms: C_5  and  S_21
REMARK    2  A    between atoms: C_8  and  N_20
REMARK    3  A    between atoms: C_10  and  O_27
REMARK    4  A    between atoms: C_11  and  O_26
REMARK    5  A    between atoms: C_13  and  C_14
REMARK    6  A    between atoms: C_14  and  O_25
REMARK    7  A    between atoms: N_20  and  S_21
REMARK                            x       y       z     vdW  Elec       q    Type
REMARK                         _______ _______ _______ _____ _____    ______ ____
ROOT
ATOM      1  N   UNL     1     -47.051  -5.559 -32.142  0.00  0.00    +0.000 NA
ENDROOT
BRANCH   1   2
ATOM      2  C   UNL     1     -46.097  -6.064 -31.198  0.00  0.00    +0.000 A 
ATOM      3  C   UNL     1     -45.368  -7.221 -31.497  0.00  0.00    +0.000 A 
ATOM      4  C   UNL     1     -44.418  -7.745 -30.610  0.00  0.00    +0.000 A 
ATOM      5  C   UNL     1     -44.197  -7.090 -29.377  0.00  0.00    +0.000 A 
ATOM      6  C   UNL     1     -44.928  -5.937 -29.080  0.00  0.00    +0.000 A 
ATOM      7  C   UNL     1     -45.876  -5.409 -29.967  0.00  0.00    +0.000 A 
BRANCH   7   8
ATOM      8  C   UNL     1     -46.603  -4.178 -29.568  0.00  0.00    +0.000 C 
ATOM      9  O   UNL     1     -46.274  -3.068 -30.074  0.00  0.00    +0.000 OA
BRANCH   8  11
ATOM     10  C   UNL     1     -47.424  -4.062 -27.248  0.00  0.00    +0.000 C 
ATOM     11  O   UNL     1     -47.646  -4.232 -28.640  0.00  0.00    +0.000 OA
ENDBRANCH   8  11
ENDBRANCH   7   8
BRANCH   5  13
ATOM     12  C   UNL     1     -43.371  -7.266 -27.022  0.00  0.00    +0.000 C 
ATOM     13  O   UNL     1     -43.275  -7.527 -28.415  0.00  0.00    +0.000 OA
ENDBRANCH   5  13
BRANCH   4  15
ATOM     14  C   UNL     1     -44.231 -10.209 -30.803  0.00  0.00    +0.000 C 
ATOM     15  O   UNL     1     -43.702  -8.898 -30.949  0.00  0.00    +0.000 OA
ENDBRANCH   4  15
ENDBRANCH   1   2
BRANCH   1  16
ATOM     16  S   UNL     1     -46.622  -4.773 -33.626  0.00  0.00    +0.000 S 
ATOM     17  O   UNL     1     -46.368  -5.816 -34.679  0.00  0.00    +0.000 OA
ATOM     18  O   UNL     1     -47.756  -3.894 -34.070  0.00  0.00    +0.000 OA
BRANCH  16  23
ATOM     19  C   UNL     1     -41.360  -0.288 -32.701  0.00  0.00    +0.000 C 
ATOM     20  C   UNL     1     -42.941  -2.211 -33.061  0.00  0.00    +0.000 A 
ATOM     21  C   UNL     1     -42.814  -3.555 -33.277  0.00  0.00    +0.000 A 
ATOM     22  C   UNL     1     -43.917  -4.385 -33.447  0.00  0.00    +0.000 A 
ATOM     23  C   UNL     1     -45.192  -3.786 -33.388  0.00  0.00    +0.000 A 
ATOM     24  C   UNL     1     -45.320  -2.394 -33.162  0.00  0.00    +0.000 A 
ATOM     25  C   UNL     1     -44.183  -1.584 -32.994  0.00  0.00    +0.000 A 
ATOM     26  C   UNL     1     -40.889  -2.739 -33.088  0.00  0.00    +0.000 A 
ATOM     27  N   UNL     1     -41.716  -1.678 -32.937  0.00  0.00    +0.000 N 
ATOM     28  O   UNL     1     -41.539  -3.873 -33.293  0.00  0.00    +0.000 OA
ATOM     29  O   UNL     1     -39.633  -2.658 -33.039  0.00  0.00    +0.000 OA
ENDBRANCH  16  23
ENDBRANCH   1  16
TORSDOF 7
ENDMDL
MODEL 2
REMARK VINA RESULT:      -5.4     11.130     14.905
REMARK  Name = ZINC000019936622 CSC046228778 PubChem-28463439
REMARK  7 active torsions:
REMARK  status: ('A' for Active; 'I' for Inactive)
REMARK    1  A    between atoms: C_5  and  S_21
REMARK    2  A    between atoms: C_8  and  N_20
REMARK    3  A    between atoms: C_10  and  O_27
REMARK    4  A    between atoms: C_11  and  O_26
REMARK    5  A    between atoms: C_13  and  C_14
REMARK    6  A    between atoms: C_14  and  O_25
REMARK    7  A    between atoms: N_20  and  S_21
REMARK                            x       y       z     vdW  Elec       q    Type
REMARK                         _______ _______ _______ _____ _____    ______ ____
ROOT
ATOM      1  N   UNL     1     -43.267 -19.943 -24.714  0.00  0.00    +0.000 NA
ENDROOT
BRANCH   1   2
ATOM      2  C   UNL     1     -43.813 -19.475 -23.473  0.00  0.00    +0.000 A 
ATOM      3  C   UNL     1     -43.155 -19.764 -22.271  0.00  0.00    +0.000 A 
ATOM      4  C   UNL     1     -43.646 -19.319 -21.036  0.00  0.00    +0.000 A 
ATOM      5  C   UNL     1     -44.841 -18.565 -21.005  0.00  0.00    +0.000 A 
ATOM      6  C   UNL     1     -45.497 -18.281 -22.206  0.00  0.00    +0.000 A 
ATOM      7  C   UNL     1     -45.006 -18.721 -23.443  0.00  0.00    +0.000 A 
BRANCH   7   8
ATOM      8  C   UNL     1     -45.768 -18.369 -24.667  0.00  0.00    +0.000 C 
ATOM      9  O   UNL     1     -46.597 -19.194 -25.144  0.00  0.00    +0.000 OA
BRANCH   8  11
ATOM     10  C   UNL     1     -46.195 -15.947 -24.820  0.00  0.00    +0.000 C 
ATOM     11  O   UNL     1     -45.581 -17.136 -25.296  0.00  0.00    +0.000 OA
ENDBRANCH   8  11
ENDBRANCH   7   8
BRANCH   5  13
ATOM     12  C   UNL     1     -45.741 -16.708 -19.589  0.00  0.00    +0.000 C 
ATOM     13  O   UNL     1     -45.423 -18.072 -19.828  0.00  0.00    +0.000 OA
ENDBRANCH   5  13
BRANCH   4  15
ATOM     14  C   UNL     1     -41.623 -20.116 -19.846  0.00  0.00    +0.000 C 
ATOM     15  O   UNL     1     -42.955 -19.618 -19.857  0.00  0.00    +0.000 OA
ENDBRANCH   4  15
ENDBRANCH   1   2
BRANCH   1  16
ATOM     16  S   UNL     1     -41.894 -19.231 -25.497  0.00  0.00    +0.000 S 
ATOM     17  O   UNL     1     -40.737 -19.209 -24.537  0.00  0.00    +0.000 OA
ATOM     18  O   UNL     1     -41.521 -20.057 -26.695  0.00  0.00    +0.000 OA
BRANCH  16  23
ATOM     19  C   UNL     1     -43.372 -12.561 -26.909  0.00  0.00    +0.000 C 
ATOM     20  C   UNL     1     -42.942 -15.038 -26.822  0.00  0.00    +0.000 A 
ATOM     21  C   UNL     1     -43.042 -16.080 -27.702  0.00  0.00    +0.000 A 
ATOM     22  C   UNL     1     -42.722 -17.385 -27.343  0.00  0.00    +0.000 A 
ATOM     23  C   UNL     1     -42.282 -17.603 -26.022  0.00  0.00    +0.000 A 
ATOM     24  C   UNL     1     -42.178 -16.522 -25.113  0.00  0.00    +0.000 A 
ATOM     25  C   UNL     1     -42.510 -15.214 -25.510  0.00  0.00    +0.000 A 
ATOM     26  C   UNL     1     -43.632 -14.328 -28.695  0.00  0.00    +0.000 A 
ATOM     27  N   UNL     1     -43.316 -13.911 -27.446  0.00  0.00    +0.000 N 
ATOM     28  O   UNL     1     -43.472 -15.630 -28.860  0.00  0.00    +0.000 OA
ATOM     29  O   UNL     1     -44.038 -13.558 -29.606  0.00  0.00    +0.000 OA
ENDBRANCH  16  23
ENDBRANCH   1  16
TORSDOF 7
ENDMDL
MODEL 3
REMARK VINA RESULT:      -5.4      3.338      5.288
REMARK  Name = ZINC000019936622 CSC046228778 PubChem-28463439
REMARK  7 active torsions:
REMARK  status: ('A' for Active; 'I' for Inactive)
REMARK    1  A    between atoms: C_5  and  S_21
REMARK    2  A    between atoms: C_8  and  N_20
REMARK    3  A    between atoms: C_10  and  O_27
REMARK    4  A    between atoms: C_11  and  O_26
REMARK    5  A    between atoms: C_13  and  C_14
REMARK    6  A    between atoms: C_14  and  O_25
REMARK    7  A    between atoms: N_20  and  S_21
REMARK                            x       y       z     vdW  Elec       q    Type
REMARK                         _______ _______ _______ _____ _____    ______ ____
ROOT
ATOM      1  N   UNL     1     -46.898  -7.528 -28.685  0.00  0.00    +0.000 NA
ENDROOT
BRANCH   1   2
ATOM      2  C   UNL     1     -46.843  -8.960 -28.674  0.00  0.00    +0.000 A 
ATOM      3  C   UNL     1     -46.918  -9.650 -27.458  0.00  0.00    +0.000 A 
ATOM      4  C   UNL     1     -46.878 -11.050 -27.400  0.00  0.00    +0.000 A 
ATOM      5  C   UNL     1     -46.752 -11.783 -28.602  0.00  0.00    +0.000 A 
ATOM      6  C   UNL     1     -46.675 -11.091 -29.814  0.00  0.00    +0.000 A 
ATOM      7  C   UNL     1     -46.718  -9.691 -29.875  0.00  0.00    +0.000 A 
BRANCH   7   8
ATOM      8  C   UNL     1     -46.632  -9.043 -31.208  0.00  0.00    +0.000 C 
ATOM      9  O   UNL     1     -47.680  -8.593 -31.751  0.00  0.00    +0.000 OA
BRANCH   8  11
ATOM     10  C   UNL     1     -45.065  -7.768 -32.618  0.00  0.00    +0.000 C 
ATOM     11  O   UNL     1     -45.406  -8.924 -31.867  0.00  0.00    +0.000 OA
ENDBRANCH   8  11
ENDBRANCH   7   8
BRANCH   5  13
ATOM     12  C   UNL     1     -45.506 -13.953 -28.641  0.00  0.00    +0.000 C 
ATOM     13  O   UNL     1     -46.700 -13.183 -28.662  0.00  0.00    +0.000 OA
ENDBRANCH   5  13
BRANCH   4  15
ATOM     14  C   UNL     1     -45.828 -12.030 -25.380  0.00  0.00    +0.000 C 
ATOM     15  O   UNL     1     -46.967 -11.705 -26.167  0.00  0.00    +0.000 OA
ENDBRANCH   4  15
ENDBRANCH   1   2
BRANCH   1  16
ATOM     16  S   UNL     1     -45.597  -6.504 -28.171  0.00  0.00    +0.000 S 
ATOM     17  O   UNL     1     -46.105  -5.549 -27.126  0.00  0.00    +0.000 OA
ATOM     18  O   UNL     1     -44.505  -7.347 -27.577  0.00  0.00    +0.000 OA
BRANCH  16  23
ATOM     19  C   UNL     1     -42.409  -3.210 -33.430  0.00  0.00    +0.000 C 
ATOM     20  C   UNL     1     -43.921  -4.191 -31.676  0.00  0.00    +0.000 A 
ATOM     21  C   UNL     1     -45.241  -4.067 -31.341  0.00  0.00    +0.000 A 
ATOM     22  C   UNL     1     -45.803  -4.766 -30.277  0.00  0.00    +0.000 A 
ATOM     23  C   UNL     1     -44.956  -5.620 -29.544  0.00  0.00    +0.000 A 
ATOM     24  C   UNL     1     -43.590  -5.747 -29.894  0.00  0.00    +0.000 A 
ATOM     25  C   UNL     1     -43.053  -5.026 -30.976  0.00  0.00    +0.000 A 
ATOM     26  C   UNL     1     -44.866  -2.828 -32.993  0.00  0.00    +0.000 A 
ATOM     27  N   UNL     1     -43.669  -3.403 -32.732  0.00  0.00    +0.000 N 
ATOM     28  O   UNL     1     -45.819  -3.220 -32.163  0.00  0.00    +0.000 OA
ATOM     29  O   UNL     1     -45.056  -2.004 -33.927  0.00  0.00    +0.000 OA
ENDBRANCH  16  23
ENDBRANCH   1  16
TORSDOF 7
ENDMDL
