MODEL 1
REMARK VINA RESULT:      -6.6      0.000      0.000
REMARK  Name = ZINC000299749536 PubChem-125151685
REMARK  6 active torsions:
REMARK  status: ('A' for Active; 'I' for Inactive)
REMARK    1  A    between atoms: C_2  and  O_22
REMARK    2  A    between atoms: C_5  and  C_6
REMARK    3  A    between atoms: C_7  and  C_8
REMARK    4  A    between atoms: C_9  and  C_10
REMARK    5  A    between atoms: C_9  and  N_27
REMARK    6  A    between atoms: C_13  and  C_14
REMARK                            x       y       z     vdW  Elec       q    Type
REMARK                         _______ _______ _______ _____ _____    ______ ____
ROOT
ATOM      1  C   UNL     1     -44.000 -16.571 -25.786  0.00  0.00    +0.000 C 
ATOM      2  C   UNL     1     -44.633 -17.927 -26.147  0.00  0.00    +0.000 C 
ATOM      3  C   UNL     1     -43.535 -18.806 -26.762  0.00  0.00    +0.000 C 
ATOM      4  C   UNL     1     -42.359 -17.916 -26.777  0.00  0.00    +0.000 C 
ATOM      5  C   UNL     1     -41.606 -15.656 -25.910  0.00  0.00    +0.000 C 
ATOM      6  O   UNL     1     -41.225 -18.262 -27.201  0.00  0.00    +0.000 OA
ATOM      7  N   UNL     1     -42.626 -16.635 -26.248  0.00  0.00    +0.000 N 
ENDROOT
BRANCH   1  11
ATOM      8  C   UNL     1     -46.163 -13.334 -27.629  0.00  0.00    +0.000 A 
ATOM      9  C   UNL     1     -45.277 -14.110 -28.397  0.00  0.00    +0.000 A 
ATOM     10  C   UNL     1     -44.570 -15.160 -27.806  0.00  0.00    +0.000 A 
ATOM     11  C   UNL     1     -44.740 -15.444 -26.443  0.00  0.00    +0.000 A 
ATOM     12  C   UNL     1     -45.623 -14.674 -25.681  0.00  0.00    +0.000 A 
ATOM     13  C   UNL     1     -46.330 -13.623 -26.271  0.00  0.00    +0.000 A 
BRANCH   8  15
ATOM     14  C   UNL     1     -46.665 -11.815 -29.516  0.00  0.00    +0.000 C 
ATOM     15  O   UNL     1     -46.885 -12.277 -28.190  0.00  0.00    +0.000 OA
ENDBRANCH   8  15
ENDBRANCH   1  11
BRANCH   2  16
ATOM     16  C   UNL     1     -45.210 -18.576 -24.933  0.00  0.00    +0.000 C 
ATOM     17  O   UNL     1     -46.242 -19.290 -25.047  0.00  0.00    +0.000 OA
ATOM     18  N   UNL     1     -44.600 -18.383 -23.655  0.00  0.00    +0.000 NA
BRANCH  18  19
ATOM     19  C   UNL     1     -45.132 -18.990 -22.447  0.00  0.00    +0.000 C 
BRANCH  19  20
ATOM     20  C   UNL     1     -45.554 -17.926 -21.496  0.00  0.00    +0.000 A 
ATOM     21  C   UNL     1     -46.055 -18.271 -20.237  0.00  0.00    +0.000 A 
ATOM     22  C   UNL     1     -46.428 -17.272 -19.335  0.00  0.00    +0.000 A 
ATOM     23  C   UNL     1     -46.297 -15.919 -19.682  0.00  0.00    +0.000 A 
ATOM     24  C   UNL     1     -45.787 -15.580 -20.943  0.00  0.00    +0.000 A 
ATOM     25  C   UNL     1     -45.413 -16.580 -21.845  0.00  0.00    +0.000 A 
BRANCH  23  26
ATOM     26  C   UNL     1     -46.689 -14.863 -18.736  0.00  0.00    +0.000 C 
ATOM     27  O   UNL     1     -46.582 -13.648 -19.053  0.00  0.00    +0.000 OA
ATOM     28  O   UNL     1     -47.182 -15.195 -17.479  0.00  0.00    +0.000 OA
ENDBRANCH  23  26
ENDBRANCH  19  20
ENDBRANCH  18  19
ENDBRANCH   2  16
TORSDOF 6
ENDMDL
MODEL 2
REMARK VINA RESULT:      -6.6      1.755      2.302
REMARK  Name = ZINC000299749536 PubChem-125151685
REMARK  6 active torsions:
REMARK  status: ('A' for Active; 'I' for Inactive)
REMARK    1  A    between atoms: C_2  and  O_22
REMARK    2  A    between atoms: C_5  and  C_6
REMARK    3  A    between atoms: C_7  and  C_8
REMARK    4  A    between atoms: C_9  and  C_10
REMARK    5  A    between atoms: C_9  and  N_27
REMARK    6  A    between atoms: C_13  and  C_14
REMARK                            x       y       z     vdW  Elec       q    Type
REMARK                         _______ _______ _______ _____ _____    ______ ____
ROOT
ATOM      1  C   UNL     1     -44.155 -17.380 -24.711  0.00  0.00    +0.000 C 
ATOM      2  C   UNL     1     -45.198 -18.407 -24.234  0.00  0.00    +0.000 C 
ATOM      3  C   UNL     1     -45.110 -19.628 -25.161  0.00  0.00    +0.000 C 
ATOM      4  C   UNL     1     -44.079 -19.233 -26.141  0.00  0.00    +0.000 C 
ATOM      5  C   UNL     1     -42.364 -17.411 -26.547  0.00  0.00    +0.000 C 
ATOM      6  O   UNL     1     -43.692 -19.971 -27.085  0.00  0.00    +0.000 OA
ATOM      7  N   UNL     1     -43.553 -17.945 -25.904  0.00  0.00    +0.000 N 
ENDROOT
BRANCH   1  11
ATOM      8  C   UNL     1     -46.023 -13.579 -25.493  0.00  0.00    +0.000 A 
ATOM      9  C   UNL     1     -45.740 -14.452 -26.558  0.00  0.00    +0.000 A 
ATOM     10  C   UNL     1     -45.131 -15.686 -26.312  0.00  0.00    +0.000 A 
ATOM     11  C   UNL     1     -44.800 -16.059 -25.002  0.00  0.00    +0.000 A 
ATOM     12  C   UNL     1     -45.085 -15.193 -23.943  0.00  0.00    +0.000 A 
ATOM     13  C   UNL     1     -45.693 -13.958 -24.188  0.00  0.00    +0.000 A 
BRANCH   8  15
ATOM     14  C   UNL     1     -46.514 -11.626 -26.928  0.00  0.00    +0.000 C 
ATOM     15  O   UNL     1     -46.631 -12.338 -25.705  0.00  0.00    +0.000 OA
ENDBRANCH   8  15
ENDBRANCH   1  11
BRANCH   2  16
ATOM     16  C   UNL     1     -44.940 -18.801 -22.818  0.00  0.00    +0.000 C 
ATOM     17  O   UNL     1     -44.020 -19.624 -22.565  0.00  0.00    +0.000 OA
ATOM     18  N   UNL     1     -45.732 -18.252 -21.763  0.00  0.00    +0.000 NA
BRANCH  18  19
ATOM     19  C   UNL     1     -45.519 -18.611 -20.371  0.00  0.00    +0.000 C 
BRANCH  19  20
ATOM     20  C   UNL     1     -45.664 -17.403 -19.514  0.00  0.00    +0.000 A 
ATOM     21  C   UNL     1     -44.537 -16.652 -19.166  0.00  0.00    +0.000 A 
ATOM     22  C   UNL     1     -44.676 -15.504 -18.383  0.00  0.00    +0.000 A 
ATOM     23  C   UNL     1     -45.945 -15.093 -17.947  0.00  0.00    +0.000 A 
ATOM     24  C   UNL     1     -47.071 -15.845 -18.306  0.00  0.00    +0.000 A 
ATOM     25  C   UNL     1     -46.932 -16.995 -19.090  0.00  0.00    +0.000 A 
BRANCH  23  26
ATOM     26  C   UNL     1     -46.097 -13.884 -17.121  0.00  0.00    +0.000 C 
ATOM     27  O   UNL     1     -47.007 -13.050 -17.371  0.00  0.00    +0.000 OA
ATOM     28  O   UNL     1     -45.236 -13.651 -16.055  0.00  0.00    +0.000 OA
ENDBRANCH  23  26
ENDBRANCH  19  20
ENDBRANCH  18  19
ENDBRANCH   2  16
TORSDOF 6
ENDMDL
MODEL 3
REMARK VINA RESULT:      -6.2     10.725     15.155
REMARK  Name = ZINC000299749536 PubChem-125151685
REMARK  6 active torsions:
REMARK  status: ('A' for Active; 'I' for Inactive)
REMARK    1  A    between atoms: C_2  and  O_22
REMARK    2  A    between atoms: C_5  and  C_6
REMARK    3  A    between atoms: C_7  and  C_8
REMARK    4  A    between atoms: C_9  and  C_10
REMARK    5  A    between atoms: C_9  and  N_27
REMARK    6  A    between atoms: C_13  and  C_14
REMARK                            x       y       z     vdW  Elec       q    Type
REMARK                         _______ _______ _______ _____ _____    ______ ____
ROOT
ATOM      1  C   UNL     1     -45.323  -6.006 -30.444  0.00  0.00    +0.000 C 
ATOM      2  C   UNL     1     -46.684  -5.331 -30.694  0.00  0.00    +0.000 C 
ATOM      3  C   UNL     1     -47.340  -5.084 -29.328  0.00  0.00    +0.000 C 
ATOM      4  C   UNL     1     -46.372  -5.665 -28.379  0.00  0.00    +0.000 C 
ATOM      5  C   UNL     1     -44.024  -6.618 -28.318  0.00  0.00    +0.000 C 
ATOM      6  O   UNL     1     -46.528  -5.660 -27.129  0.00  0.00    +0.000 OA
ATOM      7  N   UNL     1     -45.237  -6.214 -29.011  0.00  0.00    +0.000 N 
ENDROOT
BRANCH   1  11
ATOM      8  C   UNL     1     -45.090  -9.758 -32.548  0.00  0.00    +0.000 A 
ATOM      9  C   UNL     1     -44.011  -8.859 -32.599  0.00  0.00    +0.000 A 
ATOM     10  C   UNL     1     -44.080  -7.639 -31.922  0.00  0.00    +0.000 A 
ATOM     11  C   UNL     1     -45.227  -7.305 -31.187  0.00  0.00    +0.000 A 
ATOM     12  C   UNL     1     -46.299  -8.201 -31.134  0.00  0.00    +0.000 A 
ATOM     13  C   UNL     1     -46.230  -9.421 -31.812  0.00  0.00    +0.000 A 
BRANCH   8  15
ATOM     14  C   UNL     1     -45.941 -11.311 -34.275  0.00  0.00    +0.000 C 
ATOM     15  O   UNL     1     -45.053 -10.986 -33.215  0.00  0.00    +0.000 OA
ENDBRANCH   8  15
ENDBRANCH   1  11
BRANCH   2  16
ATOM     16  C   UNL     1     -46.506  -4.048 -31.434  0.00  0.00    +0.000 C 
ATOM     17  O   UNL     1     -46.709  -2.957 -30.835  0.00  0.00    +0.000 OA
ATOM     18  N   UNL     1     -46.113  -4.058 -32.808  0.00  0.00    +0.000 NA
BRANCH  18  19
ATOM     19  C   UNL     1     -45.933  -2.833 -33.568  0.00  0.00    +0.000 C 
BRANCH  19  20
ATOM     20  C   UNL     1     -44.590  -2.259 -33.283  0.00  0.00    +0.000 A 
ATOM     21  C   UNL     1     -44.480  -0.996 -32.694  0.00  0.00    +0.000 A 
ATOM     22  C   UNL     1     -43.219  -0.467 -32.403  0.00  0.00    +0.000 A 
ATOM     23  C   UNL     1     -42.060  -1.202 -32.692  0.00  0.00    +0.000 A 
ATOM     24  C   UNL     1     -42.177  -2.471 -33.274  0.00  0.00    +0.000 A 
ATOM     25  C   UNL     1     -43.439  -2.999 -33.566  0.00  0.00    +0.000 A 
BRANCH  23  26
ATOM     26  C   UNL     1     -40.730  -0.650 -32.387  0.00  0.00    +0.000 C 
ATOM     27  O   UNL     1     -39.688  -1.233 -32.791  0.00  0.00    +0.000 OA
ATOM     28  O   UNL     1     -40.610   0.523 -31.651  0.00  0.00    +0.000 OA
ENDBRANCH  23  26
ENDBRANCH  19  20
ENDBRANCH  18  19
ENDBRANCH   2  16
TORSDOF 6
ENDMDL
