MODEL 1
REMARK VINA RESULT:      -5.9      0.000      0.000
REMARK  Name = ZINC000012896535 ZINC12896535 CSCC[C@@H](CO)NC(=O)Cc1c(C)c2cc3c(C)coc3cc2oc1=O MCULE-4833014261 MolPort-002-536-305 PubChem-16408420
REMARK  7 active torsions:
REMARK  status: ('A' for Active; 'I' for Inactive)
REMARK    1  A    between atoms: CG_2  and  CB_3
REMARK    2  A    between atoms: CG_2  and  SD_21
REMARK    3  A    between atoms: CB_3  and  CA_4
REMARK    4  A    between atoms: CA_4  and  C_5
REMARK    5  A    between atoms: CA_4  and  N_27
REMARK    6  A    between atoms: C_6  and  C_7
REMARK    7  A    between atoms: C_7  and  C_8
REMARK                            x       y       z     vdW  Elec       q    Type
REMARK                         _______ _______ _______ _____ _____    ______ ____
ROOT
ATOM      1  C   UNK A   0     -45.525 -17.846 -21.295  0.00  0.00    +0.000 A 
ATOM      2  C   UNK A   0     -45.583 -16.452 -21.473  0.00  0.00    +0.000 A 
ATOM      3  C   UNK A   0     -45.336 -15.848 -22.823  0.00  0.00    +0.000 C 
ATOM      4  C   UNK A   0     -45.881 -15.635 -20.370  0.00  0.00    +0.000 A 
ATOM      5  C   UNK A   0     -45.954 -14.229 -20.487  0.00  0.00    +0.000 A 
ATOM      6  C   UNK A   0     -46.255 -13.502 -19.340  0.00  0.00    +0.000 A 
ATOM      7  C   UNK A   0     -46.477 -14.099 -18.133  0.00  0.00    +0.000 A 
ATOM      8  C   UNK A   0     -46.701 -12.001 -17.778  0.00  0.00    +0.000 A 
ATOM      9  C   UNK A   0     -46.395 -12.152 -19.128  0.00  0.00    +0.000 A 
ATOM     10  C   UNK A   0     -46.251 -11.062 -20.130  0.00  0.00    +0.000 C 
ATOM     11  C   UNK A   0     -46.416 -15.480 -17.974  0.00  0.00    +0.000 A 
ATOM     12  C   UNK A   0     -46.113 -16.258 -19.107  0.00  0.00    +0.000 A 
ATOM     13  C   UNK A   0     -45.766 -18.378 -20.015  0.00  0.00    +0.000 A 
ATOM     14  O   UNK A   0     -46.740 -13.198 -17.216  0.00  0.00    +0.000 OA
ATOM     15  O   UNK A   0     -46.046 -17.578 -18.991  0.00  0.00    +0.000 OA
ATOM     16  O   UNK A   0     -45.719 -19.622 -19.824  0.00  0.00    +0.000 OA
ENDROOT
BRANCH   1  17
ATOM     17  C   UNK A   0     -45.183 -18.757 -22.439  0.00  0.00    +0.000 C 
BRANCH  17  18
ATOM     18  C   UNK A   0     -43.715 -19.019 -22.479  0.00  0.00    +0.000 C 
ATOM     19  O   UNK A   0     -42.965 -18.269 -23.159  0.00  0.00    +0.000 OA
ATOM     20  N   MET A   1     -43.178 -20.141 -21.773  0.00  0.00    +0.000 NA
BRANCH  20  21
ATOM     21  CA  MET A   1     -41.756 -20.462 -21.758  0.00  0.00    +0.000 C 
BRANCH  21  22
ATOM     22  C   MET A   1     -41.528 -21.863 -22.303  0.00  0.00    +0.000 C 
ATOM     23  O   MET A   1     -42.563 -22.209 -23.172  0.00  0.00    +0.000 OA
ENDBRANCH  21  22
BRANCH  21  24
ATOM     24  CB  MET A   1     -41.174 -20.323 -20.351  0.00  0.00    +0.000 C 
BRANCH  24  25
ATOM     25  CG  MET A   1     -41.823 -19.190 -19.570  0.00  0.00    +0.000 C 
BRANCH  25  27
ATOM     26  CE  MET A   1     -41.641 -21.409 -18.209  0.00  0.00    +0.000 C 
ATOM     27  SD  MET A   1     -42.552 -19.849 -18.047  0.00  0.00    +0.000 S 
ENDBRANCH  25  27
ENDBRANCH  24  25
ENDBRANCH  21  24
ENDBRANCH  20  21
ENDBRANCH  17  18
ENDBRANCH   1  17
TORSDOF 7
ENDMDL
MODEL 2
REMARK VINA RESULT:      -5.8     13.323     15.678
REMARK  Name = ZINC000012896535 ZINC12896535 CSCC[C@@H](CO)NC(=O)Cc1c(C)c2cc3c(C)coc3cc2oc1=O MCULE-4833014261 MolPort-002-536-305 PubChem-16408420
REMARK  7 active torsions:
REMARK  status: ('A' for Active; 'I' for Inactive)
REMARK    1  A    between atoms: CG_2  and  CB_3
REMARK    2  A    between atoms: CG_2  and  SD_21
REMARK    3  A    between atoms: CB_3  and  CA_4
REMARK    4  A    between atoms: CA_4  and  C_5
REMARK    5  A    between atoms: CA_4  and  N_27
REMARK    6  A    between atoms: C_6  and  C_7
REMARK    7  A    between atoms: C_7  and  C_8
REMARK                            x       y       z     vdW  Elec       q    Type
REMARK                         _______ _______ _______ _____ _____    ______ ____
ROOT
ATOM      1  C   UNK A   0     -47.004  -5.406 -28.181  0.00  0.00    +0.000 A 
ATOM      2  C   UNK A   0     -46.816  -5.660 -26.810  0.00  0.00    +0.000 A 
ATOM      3  C   UNK A   0     -46.438  -7.032 -26.337  0.00  0.00    +0.000 C 
ATOM      4  C   UNK A   0     -46.981  -4.609 -25.894  0.00  0.00    +0.000 A 
ATOM      5  C   UNK A   0     -46.805  -4.803 -24.506  0.00  0.00    +0.000 A 
ATOM      6  C   UNK A   0     -46.990  -3.703 -23.673  0.00  0.00    +0.000 A 
ATOM      7  C   UNK A   0     -47.328  -2.471 -24.153  0.00  0.00    +0.000 A 
ATOM      8  C   UNK A   0     -47.187  -2.235 -22.032  0.00  0.00    +0.000 A 
ATOM      9  C   UNK A   0     -46.895  -3.567 -22.310  0.00  0.00    +0.000 A 
ATOM     10  C   UNK A   0     -46.552  -4.623 -21.320  0.00  0.00    +0.000 C 
ATOM     11  C   UNK A   0     -47.511  -2.237 -25.513  0.00  0.00    +0.000 A 
ATOM     12  C   UNK A   0     -47.335  -3.321 -26.394  0.00  0.00    +0.000 A 
ATOM     13  C   UNK A   0     -47.353  -4.106 -28.590  0.00  0.00    +0.000 A 
ATOM     14  O   UNK A   0     -47.442  -1.610 -23.170  0.00  0.00    +0.000 OA
ATOM     15  O   UNK A   0     -47.502  -3.133 -27.697  0.00  0.00    +0.000 OA
ATOM     16  O   UNK A   0     -47.530  -3.849 -29.810  0.00  0.00    +0.000 OA
ENDROOT
BRANCH   1  17
ATOM     17  C   UNK A   0     -46.865  -6.505 -29.196  0.00  0.00    +0.000 C 
BRANCH  17  18
ATOM     18  C   UNK A   0     -45.517  -6.462 -29.832  0.00  0.00    +0.000 C 
ATOM     19  O   UNK A   0     -44.558  -7.087 -29.306  0.00  0.00    +0.000 OA
ATOM     20  N   MET A   1     -45.317  -5.682 -31.014  0.00  0.00    +0.000 NA
BRANCH  20  21
ATOM     21  CA  MET A   1     -44.032  -5.592 -31.698  0.00  0.00    +0.000 C 
BRANCH  21  22
ATOM     22  C   MET A   1     -43.057  -4.762 -30.877  0.00  0.00    +0.000 C 
ATOM     23  O   MET A   1     -41.929  -5.523 -30.569  0.00  0.00    +0.000 OA
ENDBRANCH  21  22
BRANCH  21  24
ATOM     24  CB  MET A   1     -44.195  -5.010 -33.102  0.00  0.00    +0.000 C 
BRANCH  24  25
ATOM     25  CG  MET A   1     -45.635  -4.619 -33.399  0.00  0.00    +0.000 C 
BRANCH  25  27
ATOM     26  CE  MET A   1     -44.070  -2.555 -33.710  0.00  0.00    +0.000 C 
ATOM     27  SD  MET A   1     -45.810  -2.819 -33.272  0.00  0.00    +0.000 S 
ENDBRANCH  25  27
ENDBRANCH  24  25
ENDBRANCH  21  24
ENDBRANCH  20  21
ENDBRANCH  17  18
ENDBRANCH   1  17
TORSDOF 7
ENDMDL
MODEL 3
REMARK VINA RESULT:      -5.6     13.090     15.202
REMARK  Name = ZINC000012896535 ZINC12896535 CSCC[C@@H](CO)NC(=O)Cc1c(C)c2cc3c(C)coc3cc2oc1=O MCULE-4833014261 MolPort-002-536-305 PubChem-16408420
REMARK  7 active torsions:
REMARK  status: ('A' for Active; 'I' for Inactive)
REMARK    1  A    between atoms: CG_2  and  CB_3
REMARK    2  A    between atoms: CG_2  and  SD_21
REMARK    3  A    between atoms: CB_3  and  CA_4
REMARK    4  A    between atoms: CA_4  and  C_5
REMARK    5  A    between atoms: CA_4  and  N_27
REMARK    6  A    between atoms: C_6  and  C_7
REMARK    7  A    between atoms: C_7  and  C_8
REMARK                            x       y       z     vdW  Elec       q    Type
REMARK                         _______ _______ _______ _____ _____    ______ ____
ROOT
ATOM      1  C   UNK A   0     -46.874  -5.388 -28.128  0.00  0.00    +0.000 A 
ATOM      2  C   UNK A   0     -46.767  -5.624 -26.746  0.00  0.00    +0.000 A 
ATOM      3  C   UNK A   0     -46.441  -6.995 -26.233  0.00  0.00    +0.000 C 
ATOM      4  C   UNK A   0     -46.963  -4.556 -25.855  0.00  0.00    +0.000 A 
ATOM      5  C   UNK A   0     -46.867  -4.732 -24.457  0.00  0.00    +0.000 A 
ATOM      6  C   UNK A   0     -47.078  -3.617 -23.651  0.00  0.00    +0.000 A 
ATOM      7  C   UNK A   0     -47.366  -2.387 -24.167  0.00  0.00    +0.000 A 
ATOM      8  C   UNK A   0     -47.338  -2.121 -22.044  0.00  0.00    +0.000 A 
ATOM      9  C   UNK A   0     -47.056  -3.461 -22.287  0.00  0.00    +0.000 A 
ATOM     10  C   UNK A   0     -46.787  -4.508 -21.264  0.00  0.00    +0.000 C 
ATOM     11  C   UNK A   0     -47.469  -2.170 -25.538  0.00  0.00    +0.000 A 
ATOM     12  C   UNK A   0     -47.265  -3.270 -26.393  0.00  0.00    +0.000 A 
ATOM     13  C   UNK A   0     -47.177  -4.088 -28.575  0.00  0.00    +0.000 A 
ATOM     14  O   UNK A   0     -47.518  -1.509 -23.204  0.00  0.00    +0.000 OA
ATOM     15  O   UNK A   0     -47.356  -3.099 -27.706  0.00  0.00    +0.000 OA
ATOM     16  O   UNK A   0     -47.281  -3.847 -29.806  0.00  0.00    +0.000 OA
ENDROOT
BRANCH   1  17
ATOM     17  C   UNK A   0     -46.700  -6.504 -29.118  0.00  0.00    +0.000 C 
BRANCH  17  18
ATOM     18  C   UNK A   0     -45.334  -6.466 -29.715  0.00  0.00    +0.000 C 
ATOM     19  O   UNK A   0     -44.344  -6.848 -29.035  0.00  0.00    +0.000 OA
ATOM     20  N   MET A   1     -45.155  -5.961 -31.041  0.00  0.00    +0.000 NA
BRANCH  20  21
ATOM     21  CA  MET A   1     -43.854  -5.895 -31.696  0.00  0.00    +0.000 C 
BRANCH  21  22
ATOM     22  C   MET A   1     -43.556  -4.468 -32.129  0.00  0.00    +0.000 C 
ATOM     23  O   MET A   1     -44.249  -3.571 -31.316  0.00  0.00    +0.000 OA
ENDBRANCH  21  22
BRANCH  21  24
ATOM     24  CB  MET A   1     -43.788  -6.850 -32.888  0.00  0.00    +0.000 C 
BRANCH  24  25
ATOM     25  CG  MET A   1     -45.167  -7.170 -33.445  0.00  0.00    +0.000 C 
BRANCH  25  27
ATOM     26  CE  MET A   1     -47.109  -8.566 -32.402  0.00  0.00    +0.000 C 
ATOM     27  SD  MET A   1     -45.523  -8.931 -33.201  0.00  0.00    +0.000 S 
ENDBRANCH  25  27
ENDBRANCH  24  25
ENDBRANCH  21  24
ENDBRANCH  20  21
ENDBRANCH  17  18
ENDBRANCH   1  17
TORSDOF 7
ENDMDL
