MODEL 1
REMARK VINA RESULT:      -6.8      0.000      0.000
REMARK  Name = ZINC000096182881 ZINC96182881 PubChem-97458173
REMARK  3 active torsions:
REMARK  status: ('A' for Active; 'I' for Inactive)
REMARK    1  A    between atoms: C_6  and  N_21
REMARK    2  A    between atoms: C_8  and  C_9
REMARK    3  A    between atoms: C_10  and  C_14
REMARK                            x       y       z     vdW  Elec       q    Type
REMARK                         _______ _______ _______ _____ _____    ______ ____
ROOT
ATOM      1  C   UNL     1     -45.911  -3.366 -31.258  0.00  0.00    +0.000 C 
ATOM      2  C   UNL     1     -44.603  -3.905 -31.871  0.00  0.00    +0.000 C 
ATOM      3  C   UNL     1     -46.169  -4.960 -33.536  0.00  0.00    +0.000 C 
ATOM      4  C   UNL     1     -47.316  -4.292 -32.851  0.00  0.00    +0.000 C 
ATOM      5  C   UNL     1     -43.759  -5.646 -33.486  0.00  0.00    +0.000 C 
ATOM      6  N   UNL     1     -44.856  -4.837 -32.976  0.00  0.00    +0.000 N 
ATOM      7  O   UNL     1     -46.374  -5.672 -34.554  0.00  0.00    +0.000 OA
ATOM      8  O   UNL     1     -46.907  -3.093 -32.228  0.00  0.00    +0.000 OA
ENDROOT
BRANCH   2   9
ATOM      9  C   UNL     1     -43.727  -2.775 -32.320  0.00  0.00    +0.000 A 
ATOM     10  C   UNL     1     -42.340  -2.889 -32.180  0.00  0.00    +0.000 A 
ATOM     11  C   UNL     1     -41.503  -1.851 -32.598  0.00  0.00    +0.000 A 
ATOM     12  C   UNL     1     -42.051  -0.693 -33.159  0.00  0.00    +0.000 A 
ATOM     13  C   UNL     1     -43.436  -0.574 -33.303  0.00  0.00    +0.000 A 
ATOM     14  C   UNL     1     -44.274  -1.612 -32.885  0.00  0.00    +0.000 A 
ATOM     15  F   UNL     1     -41.240   0.313 -33.563  0.00  0.00    +0.000 F 
ENDBRANCH   2   9
BRANCH   1  16
ATOM     16  C   UNL     1     -46.410  -4.176 -30.095  0.00  0.00    +0.000 C 
ATOM     17  N   UNL     1     -45.624  -5.264 -29.588  0.00  0.00    +0.000 NA
ATOM     18  O   UNL     1     -47.536  -3.901 -29.602  0.00  0.00    +0.000 OA
BRANCH  17  24
ATOM     19  C   UNL     1     -46.473  -6.054 -24.746  0.00  0.00    +0.000 C 
ATOM     20  C   UNL     1     -46.383  -6.552 -26.143  0.00  0.00    +0.000 A 
ATOM     21  C   UNL     1     -46.633  -7.898 -26.424  0.00  0.00    +0.000 A 
ATOM     22  C   UNL     1     -46.547  -8.364 -27.738  0.00  0.00    +0.000 A 
ATOM     23  C   UNL     1     -46.214  -7.484 -28.772  0.00  0.00    +0.000 A 
ATOM     24  C   UNL     1     -45.963  -6.135 -28.500  0.00  0.00    +0.000 A 
ATOM     25  C   UNL     1     -46.050  -5.672 -27.178  0.00  0.00    +0.000 A 
ATOM     26  C   UNL     1     -46.812  -9.796 -28.037  0.00  0.00    +0.000 C 
ENDBRANCH  17  24
ENDBRANCH   1  16
TORSDOF 3
ENDMDL
MODEL 2
REMARK VINA RESULT:      -6.5     10.523     13.376
REMARK  Name = ZINC000096182881 ZINC96182881 PubChem-97458173
REMARK  3 active torsions:
REMARK  status: ('A' for Active; 'I' for Inactive)
REMARK    1  A    between atoms: C_6  and  N_21
REMARK    2  A    between atoms: C_8  and  C_9
REMARK    3  A    between atoms: C_10  and  C_14
REMARK                            x       y       z     vdW  Elec       q    Type
REMARK                         _______ _______ _______ _____ _____    ______ ____
ROOT
ATOM      1  C   UNL     1     -45.102 -16.526 -25.617  0.00  0.00    +0.000 C 
ATOM      2  C   UNL     1     -44.735 -15.029 -25.638  0.00  0.00    +0.000 C 
ATOM      3  C   UNL     1     -42.381 -15.910 -25.533  0.00  0.00    +0.000 C 
ATOM      4  C   UNL     1     -42.919 -17.302 -25.594  0.00  0.00    +0.000 C 
ATOM      5  C   UNL     1     -42.812 -13.468 -25.174  0.00  0.00    +0.000 C 
ATOM      6  N   UNL     1     -43.297 -14.812 -25.454  0.00  0.00    +0.000 N 
ATOM      7  O   UNL     1     -41.136 -15.720 -25.487  0.00  0.00    +0.000 OA
ATOM      8  O   UNL     1     -44.151 -17.340 -26.282  0.00  0.00    +0.000 OA
ENDROOT
BRANCH   2   9
ATOM      9  C   UNL     1     -45.211 -14.389 -26.908  0.00  0.00    +0.000 A 
ATOM     10  C   UNL     1     -46.322 -13.540 -26.869  0.00  0.00    +0.000 A 
ATOM     11  C   UNL     1     -46.778 -12.926 -28.040  0.00  0.00    +0.000 A 
ATOM     12  C   UNL     1     -46.124 -13.159 -29.253  0.00  0.00    +0.000 A 
ATOM     13  C   UNL     1     -45.012 -14.004 -29.297  0.00  0.00    +0.000 A 
ATOM     14  C   UNL     1     -44.555 -14.619 -28.127  0.00  0.00    +0.000 A 
ATOM     15  F   UNL     1     -46.567 -12.564 -30.386  0.00  0.00    +0.000 F 
ENDBRANCH   2   9
BRANCH   1  16
ATOM     16  C   UNL     1     -45.481 -17.035 -24.255  0.00  0.00    +0.000 C 
ATOM     17  N   UNL     1     -45.333 -16.188 -23.106  0.00  0.00    +0.000 NA
ATOM     18  O   UNL     1     -45.895 -18.219 -24.142  0.00  0.00    +0.000 OA
BRANCH  17  24
ATOM     19  C   UNL     1     -45.724 -19.525 -19.431  0.00  0.00    +0.000 C 
ATOM     20  C   UNL     1     -45.836 -18.130 -19.932  0.00  0.00    +0.000 A 
ATOM     21  C   UNL     1     -46.247 -17.109 -19.071  0.00  0.00    +0.000 A 
ATOM     22  C   UNL     1     -46.353 -15.798 -19.543  0.00  0.00    +0.000 A 
ATOM     23  C   UNL     1     -46.048 -15.509 -20.877  0.00  0.00    +0.000 A 
ATOM     24  C   UNL     1     -45.636 -16.526 -21.746  0.00  0.00    +0.000 A 
ATOM     25  C   UNL     1     -45.531 -17.840 -21.265  0.00  0.00    +0.000 A 
ATOM     26  C   UNL     1     -46.790 -14.712 -18.628  0.00  0.00    +0.000 C 
ENDBRANCH  17  24
ENDBRANCH   1  16
TORSDOF 3
ENDMDL
MODEL 3
REMARK VINA RESULT:      -6.5      6.759      9.874
REMARK  Name = ZINC000096182881 ZINC96182881 PubChem-97458173
REMARK  3 active torsions:
REMARK  status: ('A' for Active; 'I' for Inactive)
REMARK    1  A    between atoms: C_6  and  N_21
REMARK    2  A    between atoms: C_8  and  C_9
REMARK    3  A    between atoms: C_10  and  C_14
REMARK                            x       y       z     vdW  Elec       q    Type
REMARK                         _______ _______ _______ _____ _____    ______ ____
ROOT
ATOM      1  C   UNL     1     -46.197 -11.894 -26.103  0.00  0.00    +0.000 C 
ATOM      2  C   UNL     1     -45.151 -11.040 -26.846  0.00  0.00    +0.000 C 
ATOM      3  C   UNL     1     -46.130 -12.147 -28.883  0.00  0.00    +0.000 C 
ATOM      4  C   UNL     1     -47.123 -12.838 -28.007  0.00  0.00    +0.000 C 
ATOM      5  C   UNL     1     -44.001 -10.840 -29.079  0.00  0.00    +0.000 C 
ATOM      6  N   UNL     1     -45.107 -11.347 -28.279  0.00  0.00    +0.000 N 
ATOM      7  O   UNL     1     -46.163 -12.324 -30.130  0.00  0.00    +0.000 OA
ATOM      8  O   UNL     1     -47.390 -12.080 -26.846  0.00  0.00    +0.000 OA
ENDROOT
BRANCH   2   9
ATOM      9  C   UNL     1     -45.409  -9.581 -26.622  0.00  0.00    +0.000 A 
ATOM     10  C   UNL     1     -44.657  -8.894 -25.663  0.00  0.00    +0.000 A 
ATOM     11  C   UNL     1     -44.875  -7.530 -25.443  0.00  0.00    +0.000 A 
ATOM     12  C   UNL     1     -45.846  -6.849 -26.183  0.00  0.00    +0.000 A 
ATOM     13  C   UNL     1     -46.598  -7.530 -27.144  0.00  0.00    +0.000 A 
ATOM     14  C   UNL     1     -46.381  -8.893 -27.365  0.00  0.00    +0.000 A 
ATOM     15  F   UNL     1     -46.057  -5.528 -25.969  0.00  0.00    +0.000 F 
ENDBRANCH   2   9
BRANCH   1  16
ATOM     16  C   UNL     1     -45.641 -13.168 -25.532  0.00  0.00    +0.000 C 
ATOM     17  N   UNL     1     -46.488 -14.043 -24.772  0.00  0.00    +0.000 NA
ATOM     18  O   UNL     1     -44.422 -13.431 -25.705  0.00  0.00    +0.000 OA
BRANCH  17  24
ATOM     19  C   UNL     1     -45.556 -18.928 -25.022  0.00  0.00    +0.000 C 
ATOM     20  C   UNL     1     -45.648 -17.665 -24.245  0.00  0.00    +0.000 A 
ATOM     21  C   UNL     1     -45.363 -17.664 -22.877  0.00  0.00    +0.000 A 
ATOM     22  C   UNL     1     -45.450 -16.476 -22.147  0.00  0.00    +0.000 A 
ATOM     23  C   UNL     1     -45.822 -15.289 -22.785  0.00  0.00    +0.000 A 
ATOM     24  C   UNL     1     -46.110 -15.281 -24.155  0.00  0.00    +0.000 A 
ATOM     25  C   UNL     1     -46.020 -16.478 -24.882  0.00  0.00    +0.000 A 
ATOM     26  C   UNL     1     -45.147 -16.474 -20.692  0.00  0.00    +0.000 C 
ENDBRANCH  17  24
ENDBRANCH   1  16
TORSDOF 3
ENDMDL
