MODEL 1
REMARK VINA RESULT:      -7.3      0.000      0.000
REMARK  Name = ZINC000072242200 ZINC72242200 PubChem-95740414
REMARK  2 active torsions:
REMARK  status: ('A' for Active; 'I' for Inactive)
REMARK    1  A    between atoms: C_7  and  C_8
REMARK    2  A    between atoms: C_11  and  C_12
REMARK                            x       y       z     vdW  Elec       q    Type
REMARK                         _______ _______ _______ _____ _____    ______ ____
ROOT
ATOM      1  C   UNL     1     -46.186  -3.881 -31.740  0.00  0.00    +0.000 C 
ATOM      2  C   UNL     1     -47.269  -4.469 -32.656  0.00  0.00    +0.000 C 
ATOM      3  C   UNL     1     -46.488  -5.100 -33.737  0.00  0.00    +0.000 C 
ATOM      4  C   UNL     1     -44.816  -4.293 -32.311  0.00  0.00    +0.000 C 
ATOM      5  C   UNL     1     -44.099  -5.694 -34.337  0.00  0.00    +0.000 C 
ATOM      6  N   UNL     1     -45.094  -4.971 -33.563  0.00  0.00    +0.000 N 
ATOM      7  O   UNL     1     -47.008  -5.707 -34.711  0.00  0.00    +0.000 OA
ENDROOT
BRANCH   1  14
ATOM      8  C   UNL     1     -47.755  -1.873 -24.815  0.00  0.00    +0.000 C 
ATOM      9  C   UNL     1     -47.410  -3.002 -25.717  0.00  0.00    +0.000 A 
ATOM     10  C   UNL     1     -47.296  -4.295 -25.204  0.00  0.00    +0.000 A 
ATOM     11  C   UNL     1     -46.971  -5.342 -26.067  0.00  0.00    +0.000 A 
ATOM     12  C   UNL     1     -46.766  -5.087 -27.423  0.00  0.00    +0.000 A 
ATOM     13  C   UNL     1     -46.888  -3.778 -27.907  0.00  0.00    +0.000 A 
ATOM     14  C   UNL     1     -46.346  -4.378 -30.343  0.00  0.00    +0.000 C 
ATOM     15  N   UNL     1     -47.205  -2.774 -27.043  0.00  0.00    +0.000 NA
ATOM     16  N   UNL     1     -46.687  -3.462 -29.291  0.00  0.00    +0.000 NA
ATOM     17  O   UNL     1     -46.179  -5.605 -30.109  0.00  0.00    +0.000 OA
ENDBRANCH   1  14
BRANCH   4  18
ATOM     18  C   UNL     1     -43.941  -3.096 -32.526  0.00  0.00    +0.000 A 
ATOM     19  C   UNL     1     -44.501  -1.929 -33.054  0.00  0.00    +0.000 A 
ATOM     20  C   UNL     1     -43.704  -0.799 -33.265  0.00  0.00    +0.000 A 
ATOM     21  C   UNL     1     -42.343  -0.835 -32.948  0.00  0.00    +0.000 A 
ATOM     22  C   UNL     1     -41.777  -1.999 -32.421  0.00  0.00    +0.000 A 
ATOM     23  C   UNL     1     -42.574  -3.129 -32.210  0.00  0.00    +0.000 A 
ATOM     24  F   UNL     1     -41.571   0.259 -33.153  0.00  0.00    +0.000 F 
ENDBRANCH   4  18
TORSDOF 2
ENDMDL
MODEL 2
REMARK VINA RESULT:      -6.9      1.543      2.270
REMARK  Name = ZINC000072242200 ZINC72242200 PubChem-95740414
REMARK  2 active torsions:
REMARK  status: ('A' for Active; 'I' for Inactive)
REMARK    1  A    between atoms: C_7  and  C_8
REMARK    2  A    between atoms: C_11  and  C_12
REMARK                            x       y       z     vdW  Elec       q    Type
REMARK                         _______ _______ _______ _____ _____    ______ ____
ROOT
ATOM      1  C   UNL     1     -46.169  -3.641 -31.871  0.00  0.00    +0.000 C 
ATOM      2  C   UNL     1     -47.225  -4.220 -32.823  0.00  0.00    +0.000 C 
ATOM      3  C   UNL     1     -46.416  -4.926 -33.834  0.00  0.00    +0.000 C 
ATOM      4  C   UNL     1     -44.789  -4.133 -32.349  0.00  0.00    +0.000 C 
ATOM      5  C   UNL     1     -44.026  -5.643 -34.277  0.00  0.00    +0.000 C 
ATOM      6  N   UNL     1     -45.029  -4.848 -33.588  0.00  0.00    +0.000 N 
ATOM      7  O   UNL     1     -46.908  -5.549 -34.812  0.00  0.00    +0.000 OA
ENDROOT
BRANCH   1  14
ATOM      8  C   UNL     1     -43.736  -7.946 -26.394  0.00  0.00    +0.000 C 
ATOM      9  C   UNL     1     -44.765  -6.961 -26.816  0.00  0.00    +0.000 A 
ATOM     10  C   UNL     1     -45.765  -6.572 -25.924  0.00  0.00    +0.000 A 
ATOM     11  C   UNL     1     -46.723  -5.646 -26.338  0.00  0.00    +0.000 A 
ATOM     12  C   UNL     1     -46.670  -5.122 -27.630  0.00  0.00    +0.000 A 
ATOM     13  C   UNL     1     -45.652  -5.533 -28.502  0.00  0.00    +0.000 A 
ATOM     14  C   UNL     1     -46.426  -4.074 -30.467  0.00  0.00    +0.000 C 
ATOM     15  N   UNL     1     -44.730  -6.438 -28.072  0.00  0.00    +0.000 NA
ATOM     16  N   UNL     1     -45.552  -5.025 -29.839  0.00  0.00    +0.000 NA
ATOM     17  O   UNL     1     -47.414  -3.593 -29.851  0.00  0.00    +0.000 OA
ENDBRANCH   1  14
BRANCH   4  18
ATOM     18  C   UNL     1     -43.852  -2.983 -32.560  0.00  0.00    +0.000 A 
ATOM     19  C   UNL     1     -44.361  -1.765 -33.020  0.00  0.00    +0.000 A 
ATOM     20  C   UNL     1     -43.505  -0.678 -33.226  0.00  0.00    +0.000 A 
ATOM     21  C   UNL     1     -42.137  -0.808 -32.972  0.00  0.00    +0.000 A 
ATOM     22  C   UNL     1     -41.622  -2.023 -32.513  0.00  0.00    +0.000 A 
ATOM     23  C   UNL     1     -42.477  -3.110 -32.306  0.00  0.00    +0.000 A 
ATOM     24  F   UNL     1     -41.309   0.246 -33.172  0.00  0.00    +0.000 F 
ENDBRANCH   4  18
TORSDOF 2
ENDMDL
MODEL 3
REMARK VINA RESULT:      -6.6      3.311      4.423
REMARK  Name = ZINC000072242200 ZINC72242200 PubChem-95740414
REMARK  2 active torsions:
REMARK  status: ('A' for Active; 'I' for Inactive)
REMARK    1  A    between atoms: C_7  and  C_8
REMARK    2  A    between atoms: C_11  and  C_12
REMARK                            x       y       z     vdW  Elec       q    Type
REMARK                         _______ _______ _______ _____ _____    ______ ____
ROOT
ATOM      1  C   UNL     1     -46.742  -5.769 -28.952  0.00  0.00    +0.000 C 
ATOM      2  C   UNL     1     -46.397  -7.034 -28.153  0.00  0.00    +0.000 C 
ATOM      3  C   UNL     1     -45.100  -7.447 -28.722  0.00  0.00    +0.000 C 
ATOM      4  C   UNL     1     -45.557  -5.470 -29.890  0.00  0.00    +0.000 C 
ATOM      5  C   UNL     1     -43.294  -6.611 -30.291  0.00  0.00    +0.000 C 
ATOM      6  N   UNL     1     -44.636  -6.581 -29.735  0.00  0.00    +0.000 N 
ATOM      7  O   UNL     1     -44.460  -8.461 -28.336  0.00  0.00    +0.000 OA
ENDROOT
BRANCH   1  14
ATOM      8  C   UNL     1     -47.133  -3.716 -21.875  0.00  0.00    +0.000 C 
ATOM      9  C   UNL     1     -47.239  -3.272 -23.289  0.00  0.00    +0.000 A 
ATOM     10  C   UNL     1     -47.524  -1.938 -23.582  0.00  0.00    +0.000 A 
ATOM     11  C   UNL     1     -47.620  -1.540 -24.916  0.00  0.00    +0.000 A 
ATOM     12  C   UNL     1     -47.429  -2.474 -25.934  0.00  0.00    +0.000 A 
ATOM     13  C   UNL     1     -47.144  -3.806 -25.607  0.00  0.00    +0.000 A 
ATOM     14  C   UNL     1     -46.993  -4.617 -28.038  0.00  0.00    +0.000 C 
ATOM     15  N   UNL     1     -47.057  -4.168 -24.297  0.00  0.00    +0.000 NA
ATOM     16  N   UNL     1     -46.939  -4.805 -26.615  0.00  0.00    +0.000 NA
ATOM     17  O   UNL     1     -47.250  -3.488 -28.535  0.00  0.00    +0.000 OA
ENDBRANCH   1  14
BRANCH   4  18
ATOM     18  C   UNL     1     -46.015  -5.342 -31.311  0.00  0.00    +0.000 A 
ATOM     19  C   UNL     1     -46.224  -4.067 -31.847  0.00  0.00    +0.000 A 
ATOM     20  C   UNL     1     -46.653  -3.922 -33.170  0.00  0.00    +0.000 A 
ATOM     21  C   UNL     1     -46.875  -5.053 -33.961  0.00  0.00    +0.000 A 
ATOM     22  C   UNL     1     -46.667  -6.330 -33.431  0.00  0.00    +0.000 A 
ATOM     23  C   UNL     1     -46.238  -6.476 -32.108  0.00  0.00    +0.000 A 
ATOM     24  F   UNL     1     -47.290  -4.912 -35.242  0.00  0.00    +0.000 F 
ENDBRANCH   4  18
TORSDOF 2
ENDMDL
