MODEL 1
REMARK VINA RESULT:      -6.3      0.000      0.000
REMARK  Name = ZINC000002099315 CSCC[C@H](NC(=O)Cc1c(C)c2cc3c(C)coc3cc2oc1=O)C(O)=O MCULE-8114226211 MolPort-002-520-341 PubChem-1755356
REMARK  7 active torsions:
REMARK  status: ('A' for Active; 'I' for Inactive)
REMARK    1  A    between atoms: CG_2  and  CB_3
REMARK    2  A    between atoms: CG_2  and  SD_21
REMARK    3  A    between atoms: CB_3  and  CA_4
REMARK    4  A    between atoms: CA_4  and  C_20
REMARK    5  A    between atoms: CA_4  and  N_22
REMARK    6  A    between atoms: C_5  and  C_6
REMARK    7  A    between atoms: C_6  and  C_7
REMARK                            x       y       z     vdW  Elec       q    Type
REMARK                         _______ _______ _______ _____ _____    ______ ____
ROOT
ATOM      1  C   UNK A   0     -47.076  -5.547 -28.273  0.00  0.00    +0.000 A 
ATOM      2  C   UNK A   0     -46.870  -5.735 -26.894  0.00  0.00    +0.000 A 
ATOM      3  C   UNK A   0     -46.478  -7.081 -26.363  0.00  0.00    +0.000 C 
ATOM      4  C   UNK A   0     -47.032  -4.644 -26.025  0.00  0.00    +0.000 A 
ATOM      5  C   UNK A   0     -46.840  -4.772 -24.632  0.00  0.00    +0.000 A 
ATOM      6  C   UNK A   0     -47.024  -3.637 -23.848  0.00  0.00    +0.000 A 
ATOM      7  C   UNK A   0     -47.377  -2.431 -24.382  0.00  0.00    +0.000 A 
ATOM      8  C   UNK A   0     -47.214  -2.096 -22.275  0.00  0.00    +0.000 A 
ATOM      9  C   UNK A   0     -46.916  -3.436 -22.494  0.00  0.00    +0.000 A 
ATOM     10  C   UNK A   0     -46.553  -4.443 -21.460  0.00  0.00    +0.000 C 
ATOM     11  C   UNK A   0     -47.575  -2.261 -25.748  0.00  0.00    +0.000 A 
ATOM     12  C   UNK A   0     -47.401  -3.382 -26.580  0.00  0.00    +0.000 A 
ATOM     13  C   UNK A   0     -47.440  -4.269 -28.736  0.00  0.00    +0.000 A 
ATOM     14  O   UNK A   0     -47.486  -1.525 -23.438  0.00  0.00    +0.000 OA
ATOM     15  O   UNK A   0     -47.584  -3.256 -27.888  0.00  0.00    +0.000 OA
ATOM     16  O   UNK A   0     -47.632  -4.070 -29.967  0.00  0.00    +0.000 OA
ENDROOT
BRANCH   1  17
ATOM     17  C   UNK A   0     -46.944  -6.691 -29.237  0.00  0.00    +0.000 C 
BRANCH  17  18
ATOM     18  C   UNK A   0     -45.900  -6.392 -30.259  0.00  0.00    +0.000 C 
ATOM     19  N   MET A   1     -44.620  -5.917 -29.845  0.00  0.00    +0.000 NA
ATOM     20  O   UNK A   0     -46.149  -6.584 -31.479  0.00  0.00    +0.000 OA
BRANCH  19  21
ATOM     21  CA  MET A   1     -43.553  -5.645 -30.796  0.00  0.00    +0.000 C 
BRANCH  21  22
ATOM     22  C   MET A   1     -42.232  -5.803 -30.122  0.00  0.00    +0.000 C 
ATOM     23  O   MET A   1     -42.159  -5.987 -28.746  0.00  0.00    +0.000 OA
ATOM     24  OXT MET A   1     -41.176  -5.779 -30.805  0.00  0.00    +0.000 OA
ENDBRANCH  21  22
BRANCH  21  25
ATOM     25  CB  MET A   1     -43.688  -4.236 -31.356  0.00  0.00    +0.000 C 
BRANCH  25  26
ATOM     26  CG  MET A   1     -43.683  -4.247 -32.877  0.00  0.00    +0.000 C 
BRANCH  26  28
ATOM     27  CE  MET A   1     -45.372  -2.326 -33.504  0.00  0.00    +0.000 C 
ATOM     28  SD  MET A   1     -43.572  -2.557 -33.543  0.00  0.00    +0.000 S 
ENDBRANCH  26  28
ENDBRANCH  25  26
ENDBRANCH  21  25
ENDBRANCH  19  21
ENDBRANCH  17  18
ENDBRANCH   1  17
TORSDOF 7
ENDMDL
MODEL 2
REMARK VINA RESULT:      -6.3      4.224      7.904
REMARK  Name = ZINC000002099315 CSCC[C@H](NC(=O)Cc1c(C)c2cc3c(C)coc3cc2oc1=O)C(O)=O MCULE-8114226211 MolPort-002-520-341 PubChem-1755356
REMARK  7 active torsions:
REMARK  status: ('A' for Active; 'I' for Inactive)
REMARK    1  A    between atoms: CG_2  and  CB_3
REMARK    2  A    between atoms: CG_2  and  SD_21
REMARK    3  A    between atoms: CB_3  and  CA_4
REMARK    4  A    between atoms: CA_4  and  C_20
REMARK    5  A    between atoms: CA_4  and  N_22
REMARK    6  A    between atoms: C_5  and  C_6
REMARK    7  A    between atoms: C_6  and  C_7
REMARK                            x       y       z     vdW  Elec       q    Type
REMARK                         _______ _______ _______ _____ _____    ______ ____
ROOT
ATOM      1  C   UNK A   0     -45.186  -4.245 -33.607  0.00  0.00    +0.000 A 
ATOM      2  C   UNK A   0     -43.783  -4.301 -33.532  0.00  0.00    +0.000 A 
ATOM      3  C   UNK A   0     -43.064  -5.600 -33.741  0.00  0.00    +0.000 C 
ATOM      4  C   UNK A   0     -43.066  -3.124 -33.264  0.00  0.00    +0.000 A 
ATOM      5  C   UNK A   0     -41.657  -3.119 -33.175  0.00  0.00    +0.000 A 
ATOM      6  C   UNK A   0     -41.032  -1.906 -32.904  0.00  0.00    +0.000 A 
ATOM      7  C   UNK A   0     -41.732  -0.747 -32.726  0.00  0.00    +0.000 A 
ATOM      8  C   UNK A   0     -39.675  -0.209 -32.495  0.00  0.00    +0.000 A 
ATOM      9  C   UNK A   0     -39.707  -1.575 -32.758  0.00  0.00    +0.000 A 
ATOM     10  C   UNK A   0     -38.534  -2.485 -32.859  0.00  0.00    +0.000 C 
ATOM     11  C   UNK A   0     -43.121  -0.708 -32.805  0.00  0.00    +0.000 A 
ATOM     12  C   UNK A   0     -43.796  -1.912 -33.077  0.00  0.00    +0.000 A 
ATOM     13  C   UNK A   0     -45.827  -3.009 -33.409  0.00  0.00    +0.000 A 
ATOM     14  O   UNK A   0     -40.916   0.251 -32.485  0.00  0.00    +0.000 OA
ATOM     15  O   UNK A   0     -45.120  -1.912 -33.158  0.00  0.00    +0.000 OA
ATOM     16  O   UNK A   0     -47.084  -2.927 -33.470  0.00  0.00    +0.000 OA
ENDROOT
BRANCH   1  17
ATOM     17  C   UNK A   0     -45.997  -5.484 -33.862  0.00  0.00    +0.000 C 
BRANCH  17  18
ATOM     18  C   UNK A   0     -46.370  -6.135 -32.574  0.00  0.00    +0.000 C 
ATOM     19  N   MET A   1     -46.170  -5.439 -31.345  0.00  0.00    +0.000 NA
ATOM     20  O   UNK A   0     -46.884  -7.286 -32.583  0.00  0.00    +0.000 OA
BRANCH  19  21
ATOM     21  CA  MET A   1     -46.550  -6.011 -30.062  0.00  0.00    +0.000 C 
BRANCH  21  22
ATOM     22  C   MET A   1     -47.126  -4.946 -29.192  0.00  0.00    +0.000 C 
ATOM     23  O   MET A   1     -47.756  -3.841 -29.753  0.00  0.00    +0.000 OA
ATOM     24  OXT MET A   1     -47.049  -5.053 -27.941  0.00  0.00    +0.000 OA
ENDBRANCH  21  22
BRANCH  21  25
ATOM     25  CB  MET A   1     -45.342  -6.643 -29.384  0.00  0.00    +0.000 C 
BRANCH  25  26
ATOM     26  CG  MET A   1     -45.580  -8.119 -29.104  0.00  0.00    +0.000 C 
BRANCH  26  28
ATOM     27  CE  MET A   1     -47.137  -9.859 -30.319  0.00  0.00    +0.000 C 
ATOM     28  SD  MET A   1     -47.357  -8.511 -29.126  0.00  0.00    +0.000 S 
ENDBRANCH  26  28
ENDBRANCH  25  26
ENDBRANCH  21  25
ENDBRANCH  19  21
ENDBRANCH  17  18
ENDBRANCH   1  17
TORSDOF 7
ENDMDL
MODEL 3
REMARK VINA RESULT:      -6.0     12.525     14.913
REMARK  Name = ZINC000002099315 CSCC[C@H](NC(=O)Cc1c(C)c2cc3c(C)coc3cc2oc1=O)C(O)=O MCULE-8114226211 MolPort-002-520-341 PubChem-1755356
REMARK  7 active torsions:
REMARK  status: ('A' for Active; 'I' for Inactive)
REMARK    1  A    between atoms: CG_2  and  CB_3
REMARK    2  A    between atoms: CG_2  and  SD_21
REMARK    3  A    between atoms: CB_3  and  CA_4
REMARK    4  A    between atoms: CA_4  and  C_20
REMARK    5  A    between atoms: CA_4  and  N_22
REMARK    6  A    between atoms: C_5  and  C_6
REMARK    7  A    between atoms: C_6  and  C_7
REMARK                            x       y       z     vdW  Elec       q    Type
REMARK                         _______ _______ _______ _____ _____    ______ ____
ROOT
ATOM      1  C   UNK A   0     -45.080 -18.767 -24.252  0.00  0.00    +0.000 A 
ATOM      2  C   UNK A   0     -44.674 -18.631 -22.912  0.00  0.00    +0.000 A 
ATOM      3  C   UNK A   0     -45.324 -17.615 -22.022  0.00  0.00    +0.000 C 
ATOM      4  C   UNK A   0     -43.656 -19.464 -22.420  0.00  0.00    +0.000 A 
ATOM      5  C   UNK A   0     -43.206 -19.374 -21.085  0.00  0.00    +0.000 A 
ATOM      6  C   UNK A   0     -42.192 -20.239 -20.686  0.00  0.00    +0.000 A 
ATOM      7  C   UNK A   0     -41.635 -21.152 -21.535  0.00  0.00    +0.000 A 
ATOM      8  C   UNK A   0     -40.621 -21.417 -19.670  0.00  0.00    +0.000 A 
ATOM      9  C   UNK A   0     -41.549 -20.398 -19.483  0.00  0.00    +0.000 A 
ATOM     10  C   UNK A   0     -41.790 -19.639 -18.225  0.00  0.00    +0.000 C 
ATOM     11  C   UNK A   0     -42.049 -21.274 -22.857  0.00  0.00    +0.000 A 
ATOM     12  C   UNK A   0     -43.072 -20.419 -23.306  0.00  0.00    +0.000 A 
ATOM     13  C   UNK A   0     -44.450 -19.734 -25.058  0.00  0.00    +0.000 A 
ATOM     14  O   UNK A   0     -40.705 -21.844 -20.920  0.00  0.00    +0.000 OA
ATOM     15  O   UNK A   0     -43.490 -20.508 -24.561  0.00  0.00    +0.000 OA
ATOM     16  O   UNK A   0     -44.792 -19.878 -26.263  0.00  0.00    +0.000 OA
ENDROOT
BRANCH   1  17
ATOM     17  C   UNK A   0     -46.143 -17.878 -24.831  0.00  0.00    +0.000 C 
BRANCH  17  18
ATOM     18  C   UNK A   0     -45.565 -16.559 -25.218  0.00  0.00    +0.000 C 
ATOM     19  N   MET A   1     -46.209 -15.356 -24.801  0.00  0.00    +0.000 NA
ATOM     20  O   UNK A   0     -44.500 -16.517 -25.888  0.00  0.00    +0.000 OA
BRANCH  19  21
ATOM     21  CA  MET A   1     -45.671 -14.042 -25.118  0.00  0.00    +0.000 C 
BRANCH  21  22
ATOM     22  C   MET A   1     -45.944 -13.106 -23.990  0.00  0.00    +0.000 C 
ATOM     23  O   MET A   1     -45.913 -11.731 -24.192  0.00  0.00    +0.000 OA
ATOM     24  OXT MET A   1     -46.215 -13.563 -22.850  0.00  0.00    +0.000 OA
ENDBRANCH  21  22
BRANCH  21  25
ATOM     25  CB  MET A   1     -46.292 -13.509 -26.402  0.00  0.00    +0.000 C 
BRANCH  25  26
ATOM     26  CG  MET A   1     -45.226 -12.985 -27.351  0.00  0.00    +0.000 C 
BRANCH  26  28
ATOM     27  CE  MET A   1     -45.795 -13.267 -29.906  0.00  0.00    +0.000 C 
ATOM     28  SD  MET A   1     -44.861 -14.197 -28.659  0.00  0.00    +0.000 S 
ENDBRANCH  26  28
ENDBRANCH  25  26
ENDBRANCH  21  25
ENDBRANCH  19  21
ENDBRANCH  17  18
ENDBRANCH   1  17
TORSDOF 7
ENDMDL
