MODEL 1
REMARK VINA RESULT:      -6.6      0.000      0.000
REMARK  Name = ZINC000408606915 PubChem-125618295
REMARK  6 active torsions:
REMARK  status: ('A' for Active; 'I' for Inactive)
REMARK    1  A    between atoms: C_2  and  C_3
REMARK    2  A    between atoms: C_3  and  N_21
REMARK    3  A    between atoms: C_4  and  C_5
REMARK    4  A    between atoms: C_6  and  C_7
REMARK    5  A    between atoms: C_8  and  N_24
REMARK    6  A    between atoms: N_22  and  N_23
REMARK                            x       y       z     vdW  Elec       q    Type
REMARK                         _______ _______ _______ _____ _____    ______ ____
ROOT
ATOM      1  C   UNL     1     -46.715  -6.480 -26.992  0.00  0.00    +0.000 A 
ATOM      2  C   UNL     1     -46.704  -6.308 -25.605  0.00  0.00    +0.000 A 
ATOM      3  C   UNL     1     -46.899  -4.951 -25.436  0.00  0.00    +0.000 A 
ATOM      4  C   UNL     1     -47.025  -4.218 -24.258  0.00  0.00    +0.000 A 
ATOM      5  C   UNL     1     -47.287  -2.840 -24.369  0.00  0.00    +0.000 A 
ATOM      6  C   UNL     1     -47.435  -2.241 -25.638  0.00  0.00    +0.000 A 
ATOM      7  C   UNL     1     -47.307  -3.005 -26.809  0.00  0.00    +0.000 A 
ATOM      8  C   UNL     1     -47.017  -4.365 -26.670  0.00  0.00    +0.000 A 
ATOM      9  N   UNL     1     -46.884  -5.296 -27.631  0.00  0.00    +0.000 N 
ATOM     10 CL   UNL     1     -47.451  -1.869 -22.923  0.00  0.00    +0.000 Cl
ENDROOT
BRANCH   9  12
ATOM     11  C   UNL     1     -45.963  -5.021 -29.946  0.00  0.00    +0.000 C 
ATOM     12  N   UNL     1     -47.047  -5.125 -29.019  0.00  0.00    +0.000 NA
ATOM     13  O   UNL     1     -44.796  -5.355 -29.604  0.00  0.00    +0.000 OA
BRANCH  11  14
ATOM     14  C   UNL     1     -46.221  -4.578 -31.320  0.00  0.00    +0.000 C 
ATOM     15  N   UNL     1     -45.898  -3.241 -31.708  0.00  0.00    +0.000 NA
ATOM     16  O   UNL     1     -46.728  -5.376 -32.154  0.00  0.00    +0.000 OA
BRANCH  15  17
ATOM     17  C   UNL     1     -46.134  -2.751 -33.055  0.00  0.00    +0.000 C 
BRANCH  17  19
ATOM     18  C   UNL     1     -44.271  -1.173 -33.020  0.00  0.00    +0.000 C 
ATOM     19  C   UNL     1     -44.866  -2.204 -33.612  0.00  0.00    +0.000 C 
ENDBRANCH  17  19
ENDBRANCH  15  17
ENDBRANCH  11  14
ENDBRANCH   9  12
BRANCH   1  20
ATOM     20  C   UNL     1     -46.562  -7.785 -27.661  0.00  0.00    +0.000 C 
ATOM     21  N   UNL     1     -45.621  -8.735 -27.141  0.00  0.00    +0.000 NA
ATOM     22  O   UNL     1     -47.252  -8.056 -28.681  0.00  0.00    +0.000 OA
BRANCH  21  23
ATOM     23  C   UNL     1     -45.343 -10.044 -27.658  0.00  0.00    +0.000 A 
ATOM     24  C   UNL     1     -46.140 -11.115 -27.242  0.00  0.00    +0.000 A 
ATOM     25  C   UNL     1     -45.900 -12.405 -27.724  0.00  0.00    +0.000 A 
ATOM     26  C   UNL     1     -44.859 -12.630 -28.629  0.00  0.00    +0.000 A 
ATOM     27  C   UNL     1     -44.058 -11.565 -29.051  0.00  0.00    +0.000 A 
ATOM     28  C   UNL     1     -44.299 -10.277 -28.567  0.00  0.00    +0.000 A 
ATOM     29 CL   UNL     1     -44.557 -14.245 -29.232  0.00  0.00    +0.000 Cl
ENDBRANCH  21  23
ENDBRANCH   1  20
TORSDOF 6
ENDMDL
MODEL 2
REMARK VINA RESULT:      -6.5      8.105     12.233
REMARK  Name = ZINC000408606915 PubChem-125618295
REMARK  6 active torsions:
REMARK  status: ('A' for Active; 'I' for Inactive)
REMARK    1  A    between atoms: C_2  and  C_3
REMARK    2  A    between atoms: C_3  and  N_21
REMARK    3  A    between atoms: C_4  and  C_5
REMARK    4  A    between atoms: C_6  and  C_7
REMARK    5  A    between atoms: C_8  and  N_24
REMARK    6  A    between atoms: N_22  and  N_23
REMARK                            x       y       z     vdW  Elec       q    Type
REMARK                         _______ _______ _______ _____ _____    ______ ____
ROOT
ATOM      1  C   UNL     1     -44.977 -15.909 -26.366  0.00  0.00    +0.000 A 
ATOM      2  C   UNL     1     -44.512 -15.478 -27.611  0.00  0.00    +0.000 A 
ATOM      3  C   UNL     1     -45.044 -14.210 -27.746  0.00  0.00    +0.000 A 
ATOM      4  C   UNL     1     -44.870 -13.285 -28.773  0.00  0.00    +0.000 A 
ATOM      5  C   UNL     1     -45.479 -12.025 -28.629  0.00  0.00    +0.000 A 
ATOM      6  C   UNL     1     -46.220 -11.718 -27.468  0.00  0.00    +0.000 A 
ATOM      7  C   UNL     1     -46.375 -12.669 -26.446  0.00  0.00    +0.000 A 
ATOM      8  C   UNL     1     -45.785 -13.922 -26.629  0.00  0.00    +0.000 A 
ATOM      9  N   UNL     1     -45.765 -14.969 -25.786  0.00  0.00    +0.000 N 
ATOM     10 CL   UNL     1     -45.299 -10.826 -29.890  0.00  0.00    +0.000 Cl
ENDROOT
BRANCH   9  12
ATOM     11  C   UNL     1     -45.619 -14.614 -23.309  0.00  0.00    +0.000 C 
ATOM     12  N   UNL     1     -46.308 -15.037 -24.489  0.00  0.00    +0.000 NA
ATOM     13  O   UNL     1     -44.586 -13.897 -23.396  0.00  0.00    +0.000 OA
BRANCH  11  14
ATOM     14  C   UNL     1     -46.150 -14.971 -21.989  0.00  0.00    +0.000 C 
ATOM     15  N   UNL     1     -45.590 -16.072 -21.271  0.00  0.00    +0.000 NA
ATOM     16  O   UNL     1     -47.100 -14.306 -21.492  0.00  0.00    +0.000 OA
BRANCH  15  17
ATOM     17  C   UNL     1     -46.080 -16.467 -19.962  0.00  0.00    +0.000 C 
BRANCH  17  19
ATOM     18  C   UNL     1     -46.592 -18.850 -20.110  0.00  0.00    +0.000 C 
ATOM     19  C   UNL     1     -45.749 -17.899 -19.721  0.00  0.00    +0.000 C 
ENDBRANCH  17  19
ENDBRANCH  15  17
ENDBRANCH  11  14
ENDBRANCH   9  12
BRANCH   1  20
ATOM     20  C   UNL     1     -44.649 -17.217 -25.771  0.00  0.00    +0.000 C 
ATOM     21  N   UNL     1     -43.510 -17.328 -24.904  0.00  0.00    +0.000 NA
ATOM     22  O   UNL     1     -45.362 -18.224 -26.027  0.00  0.00    +0.000 OA
BRANCH  21  23
ATOM     23  C   UNL     1     -43.045 -18.512 -24.241  0.00  0.00    +0.000 A 
ATOM     24  C   UNL     1     -42.200 -19.384 -24.935  0.00  0.00    +0.000 A 
ATOM     25  C   UNL     1     -41.726 -20.548 -24.322  0.00  0.00    +0.000 A 
ATOM     26  C   UNL     1     -42.095 -20.845 -23.007  0.00  0.00    +0.000 A 
ATOM     27  C   UNL     1     -42.938 -19.978 -22.306  0.00  0.00    +0.000 A 
ATOM     28  C   UNL     1     -43.411 -18.816 -22.921  0.00  0.00    +0.000 A 
ATOM     29 CL   UNL     1     -41.503 -22.302 -22.240  0.00  0.00    +0.000 Cl
ENDBRANCH  21  23
ENDBRANCH   1  20
TORSDOF 6
ENDMDL
MODEL 3
REMARK VINA RESULT:      -6.3      7.742     10.587
REMARK  Name = ZINC000408606915 PubChem-125618295
REMARK  6 active torsions:
REMARK  status: ('A' for Active; 'I' for Inactive)
REMARK    1  A    between atoms: C_2  and  C_3
REMARK    2  A    between atoms: C_3  and  N_21
REMARK    3  A    between atoms: C_4  and  C_5
REMARK    4  A    between atoms: C_6  and  C_7
REMARK    5  A    between atoms: C_8  and  N_24
REMARK    6  A    between atoms: N_22  and  N_23
REMARK                            x       y       z     vdW  Elec       q    Type
REMARK                         _______ _______ _______ _____ _____    ______ ____
ROOT
ATOM      1  C   UNL     1     -45.130 -16.994 -23.921  0.00  0.00    +0.000 A 
ATOM      2  C   UNL     1     -44.852 -17.484 -22.642  0.00  0.00    +0.000 A 
ATOM      3  C   UNL     1     -45.359 -16.515 -21.797  0.00  0.00    +0.000 A 
ATOM      4  C   UNL     1     -45.408 -16.497 -20.405  0.00  0.00    +0.000 A 
ATOM      5  C   UNL     1     -46.047 -15.407 -19.786  0.00  0.00    +0.000 A 
ATOM      6  C   UNL     1     -46.632 -14.385 -20.564  0.00  0.00    +0.000 A 
ATOM      7  C   UNL     1     -46.571 -14.432 -21.967  0.00  0.00    +0.000 A 
ATOM      8  C   UNL     1     -45.905 -15.510 -22.554  0.00  0.00    +0.000 A 
ATOM      9  N   UNL     1     -45.748 -15.788 -23.860  0.00  0.00    +0.000 N 
ATOM     10 CL   UNL     1     -46.133 -15.329 -18.040  0.00  0.00    +0.000 Cl
ENDROOT
BRANCH   9  12
ATOM     11  C   UNL     1     -45.565 -14.002 -25.610  0.00  0.00    +0.000 C 
ATOM     12  N   UNL     1     -46.260 -15.069 -24.957  0.00  0.00    +0.000 NA
ATOM     13  O   UNL     1     -44.333 -13.827 -25.412  0.00  0.00    +0.000 OA
BRANCH  11  14
ATOM     14  C   UNL     1     -46.281 -13.141 -26.558  0.00  0.00    +0.000 C 
ATOM     15  N   UNL     1     -46.330 -13.495 -27.941  0.00  0.00    +0.000 NA
ATOM     16  O   UNL     1     -46.850 -12.092 -26.150  0.00  0.00    +0.000 OA
BRANCH  15  17
ATOM     17  C   UNL     1     -47.025 -12.678 -28.921  0.00  0.00    +0.000 C 
BRANCH  17  19
ATOM     18  C   UNL     1     -46.060 -11.302 -30.692  0.00  0.00    +0.000 C 
ATOM     19  C   UNL     1     -46.158 -12.497 -30.119  0.00  0.00    +0.000 C 
ENDBRANCH  17  19
ENDBRANCH  15  17
ENDBRANCH  11  14
ENDBRANCH   9  12
BRANCH   1  20
ATOM     20  C   UNL     1     -44.789 -17.704 -25.167  0.00  0.00    +0.000 C 
ATOM     21  N   UNL     1     -43.501 -17.495 -25.765  0.00  0.00    +0.000 NA
ATOM     22  O   UNL     1     -45.625 -18.483 -25.698  0.00  0.00    +0.000 OA
BRANCH  21  23
ATOM     23  C   UNL     1     -43.001 -18.098 -26.966  0.00  0.00    +0.000 A 
ATOM     24  C   UNL     1     -42.473 -17.272 -27.964  0.00  0.00    +0.000 A 
ATOM     25  C   UNL     1     -41.976 -17.824 -29.149  0.00  0.00    +0.000 A 
ATOM     26  C   UNL     1     -42.004 -19.207 -29.342  0.00  0.00    +0.000 A 
ATOM     27  C   UNL     1     -42.529 -20.040 -28.350  0.00  0.00    +0.000 A 
ATOM     28  C   UNL     1     -43.026 -19.487 -27.166  0.00  0.00    +0.000 A 
ATOM     29 CL   UNL     1     -41.383 -19.897 -30.825  0.00  0.00    +0.000 Cl
ENDBRANCH  21  23
ENDBRANCH   1  20
TORSDOF 6
ENDMDL
