MODEL 1
REMARK VINA RESULT:      -5.7      0.000      0.000
REMARK  Name = ZINC000615451238 MolPort-044-610-126
REMARK  6 active torsions:
REMARK  status: ('A' for Active; 'I' for Inactive)
REMARK    1  A    between atoms: C_2  and  C_3
REMARK    2  A    between atoms: C_4  and  C_5
REMARK    3  A    between atoms: C_5  and  N_22
REMARK    4  A    between atoms: C_6  and  C_7
REMARK    5  A    between atoms: C_10  and  N_23
REMARK    6  A    between atoms: C_13  and  C_14
REMARK                            x       y       z     vdW  Elec       q    Type
REMARK                         _______ _______ _______ _____ _____    ______ ____
ROOT
ATOM      1  C   UNL     1     -46.934  -7.198 -29.867  0.00  0.00    +0.000 C 
ATOM      2  C   UNL     1     -47.066  -6.218 -28.693  0.00  0.00    +0.000 C 
ATOM      3  C   UNL     1     -45.852  -6.478 -27.896  0.00  0.00    +0.000 C 
ATOM      4  C   UNL     1     -45.644  -8.011 -29.657  0.00  0.00    +0.000 C 
ATOM      5  N   UNL     1     -45.022  -7.476 -28.456  0.00  0.00    +0.000 N 
ATOM      6  O   UNL     1     -45.582  -5.878 -26.822  0.00  0.00    +0.000 OA
ENDROOT
BRANCH   4   7
ATOM      7  C   UNL     1     -45.952  -9.472 -29.509  0.00  0.00    +0.000 A 
ATOM      8  C   UNL     1     -45.628 -10.516 -30.352  0.00  0.00    +0.000 A 
ATOM      9  C   UNL     1     -44.882 -10.435 -31.642  0.00  0.00    +0.000 C 
ATOM     10  C   UNL     1     -45.994 -12.988 -30.363  0.00  0.00    +0.000 C 
ATOM     11  C   UNL     1     -46.640 -10.044 -28.452  0.00  0.00    +0.000 A 
ATOM     12  N   UNL     1     -46.108 -11.648 -29.811  0.00  0.00    +0.000 N 
ATOM     13  N   UNL     1     -46.717 -11.375 -28.669  0.00  0.00    +0.000 NA
ENDBRANCH   4   7
BRANCH   1  14
ATOM     14  C   UNL     1     -46.873  -6.456 -31.160  0.00  0.00    +0.000 C 
ATOM     15  N   UNL     1     -46.988  -5.031 -31.178  0.00  0.00    +0.000 NA
ATOM     16  O   UNL     1     -46.716  -7.097 -32.234  0.00  0.00    +0.000 OA
BRANCH  15  17
ATOM     17  C   UNL     1     -46.911  -4.263 -32.408  0.00  0.00    +0.000 C 
BRANCH  17  19
ATOM     18  C   UNL     1     -44.787  -1.439 -32.392  0.00  0.00    +0.000 A 
ATOM     19  C   UNL     1     -46.125  -3.023 -32.169  0.00  0.00    +0.000 A 
ATOM     20  N   UNL     1     -45.291  -2.483 -33.080  0.00  0.00    +0.000 NA
ATOM     21  N   UNL     1     -46.121  -2.359 -31.000  0.00  0.00    +0.000 NA
ATOM     22  N   UNL     1     -45.279  -1.351 -31.143  0.00  0.00    +0.000 NA
BRANCH  18  24
ATOM     23  C   UNL     1     -42.387  -0.922 -32.617  0.00  0.00    +0.000 C 
ATOM     24  C   UNL     1     -43.797  -0.476 -32.954  0.00  0.00    +0.000 C 
ENDBRANCH  18  24
ENDBRANCH  17  19
ENDBRANCH  15  17
ENDBRANCH   1  14
BRANCH   5  25
ATOM     25  C   UNL     1     -43.785  -7.972 -27.855  0.00  0.00    +0.000 C 
ATOM     26  C   UNL     1     -42.735  -6.875 -27.854  0.00  0.00    +0.000 C 
ATOM     27  C   UNL     1     -42.670  -7.976 -28.887  0.00  0.00    +0.000 C 
ENDBRANCH   5  25
TORSDOF 6
ENDMDL
MODEL 2
REMARK VINA RESULT:      -5.6      8.728     13.645
REMARK  Name = ZINC000615451238 MolPort-044-610-126
REMARK  6 active torsions:
REMARK  status: ('A' for Active; 'I' for Inactive)
REMARK    1  A    between atoms: C_2  and  C_3
REMARK    2  A    between atoms: C_4  and  C_5
REMARK    3  A    between atoms: C_5  and  N_22
REMARK    4  A    between atoms: C_6  and  C_7
REMARK    5  A    between atoms: C_10  and  N_23
REMARK    6  A    between atoms: C_13  and  C_14
REMARK                            x       y       z     vdW  Elec       q    Type
REMARK                         _______ _______ _______ _____ _____    ______ ____
ROOT
ATOM      1  C   UNL     1     -43.079 -17.453 -26.957  0.00  0.00    +0.000 C 
ATOM      2  C   UNL     1     -41.545 -17.505 -27.009  0.00  0.00    +0.000 C 
ATOM      3  C   UNL     1     -41.140 -16.277 -26.299  0.00  0.00    +0.000 C 
ATOM      4  C   UNL     1     -43.480 -16.152 -26.239  0.00  0.00    +0.000 C 
ATOM      5  N   UNL     1     -42.236 -15.517 -25.830  0.00  0.00    +0.000 N 
ATOM      6  O   UNL     1     -39.940 -15.932 -26.131  0.00  0.00    +0.000 OA
ENDROOT
BRANCH   4   7
ATOM      7  C   UNL     1     -44.274 -15.263 -27.149  0.00  0.00    +0.000 A 
ATOM      8  C   UNL     1     -45.417 -14.538 -26.873  0.00  0.00    +0.000 A 
ATOM      9  C   UNL     1     -46.151 -14.472 -25.575  0.00  0.00    +0.000 C 
ATOM     10  C   UNL     1     -46.918 -13.006 -28.154  0.00  0.00    +0.000 C 
ATOM     11  C   UNL     1     -43.978 -15.004 -28.477  0.00  0.00    +0.000 A 
ATOM     12  N   UNL     1     -45.773 -13.888 -27.992  0.00  0.00    +0.000 N 
ATOM     13  N   UNL     1     -44.915 -14.159 -28.961  0.00  0.00    +0.000 NA
ENDBRANCH   4   7
BRANCH   1  14
ATOM     14  C   UNL     1     -43.615 -18.636 -26.223  0.00  0.00    +0.000 C 
ATOM     15  N   UNL     1     -42.940 -19.130 -25.064  0.00  0.00    +0.000 NA
ATOM     16  O   UNL     1     -44.669 -19.192 -26.633  0.00  0.00    +0.000 OA
BRANCH  15  17
ATOM     17  C   UNL     1     -43.436 -20.263 -24.303  0.00  0.00    +0.000 C 
BRANCH  17  19
ATOM     18  C   UNL     1     -44.673 -18.839 -21.314  0.00  0.00    +0.000 A 
ATOM     19  C   UNL     1     -43.784 -19.821 -22.926  0.00  0.00    +0.000 A 
ATOM     20  N   UNL     1     -44.796 -18.974 -22.650  0.00  0.00    +0.000 NA
ATOM     21  N   UNL     1     -43.084 -20.170 -21.832  0.00  0.00    +0.000 NA
ATOM     22  N   UNL     1     -43.651 -19.554 -20.810  0.00  0.00    +0.000 NA
BRANCH  18  24
ATOM     23  C   UNL     1     -46.676 -18.852 -19.878  0.00  0.00    +0.000 C 
ATOM     24  C   UNL     1     -45.576 -17.998 -20.479  0.00  0.00    +0.000 C 
ENDBRANCH  18  24
ENDBRANCH  17  19
ENDBRANCH  15  17
ENDBRANCH   1  14
BRANCH   5  25
ATOM     25  C   UNL     1     -42.133 -14.233 -25.140  0.00  0.00    +0.000 C 
ATOM     26  C   UNL     1     -41.379 -14.407 -23.833  0.00  0.00    +0.000 C 
ATOM     27  C   UNL     1     -42.885 -14.288 -23.821  0.00  0.00    +0.000 C 
ENDBRANCH   5  25
TORSDOF 6
ENDMDL
MODEL 3
REMARK VINA RESULT:      -5.6      1.554      1.826
REMARK  Name = ZINC000615451238 MolPort-044-610-126
REMARK  6 active torsions:
REMARK  status: ('A' for Active; 'I' for Inactive)
REMARK    1  A    between atoms: C_2  and  C_3
REMARK    2  A    between atoms: C_4  and  C_5
REMARK    3  A    between atoms: C_5  and  N_22
REMARK    4  A    between atoms: C_6  and  C_7
REMARK    5  A    between atoms: C_10  and  N_23
REMARK    6  A    between atoms: C_13  and  C_14
REMARK                            x       y       z     vdW  Elec       q    Type
REMARK                         _______ _______ _______ _____ _____    ______ ____
ROOT
ATOM      1  C   UNL     1     -46.173  -6.750 -29.412  0.00  0.00    +0.000 C 
ATOM      2  C   UNL     1     -45.274  -5.759 -28.659  0.00  0.00    +0.000 C 
ATOM      3  C   UNL     1     -43.964  -6.437 -28.640  0.00  0.00    +0.000 C 
ATOM      4  C   UNL     1     -45.322  -7.986 -29.757  0.00  0.00    +0.000 C 
ATOM      5  N   UNL     1     -43.976  -7.692 -29.290  0.00  0.00    +0.000 N 
ATOM      6  O   UNL     1     -42.937  -5.954 -28.093  0.00  0.00    +0.000 OA
ENDROOT
BRANCH   4   7
ATOM      7  C   UNL     1     -45.874  -9.215 -29.097  0.00  0.00    +0.000 A 
ATOM      8  C   UNL     1     -46.139 -10.452 -29.651  0.00  0.00    +0.000 A 
ATOM      9  C   UNL     1     -45.941 -10.865 -31.071  0.00  0.00    +0.000 C 
ATOM     10  C   UNL     1     -47.033 -12.631 -28.818  0.00  0.00    +0.000 C 
ATOM     11  C   UNL     1     -46.221  -9.321 -27.760  0.00  0.00    +0.000 A 
ATOM     12  N   UNL     1     -46.622 -11.244 -28.680  0.00  0.00    +0.000 N 
ATOM     13  N   UNL     1     -46.673 -10.575 -27.540  0.00  0.00    +0.000 NA
ENDBRANCH   4   7
BRANCH   1  14
ATOM     14  C   UNL     1     -46.708  -6.126 -30.657  0.00  0.00    +0.000 C 
ATOM     15  N   UNL     1     -46.039  -6.323 -31.905  0.00  0.00    +0.000 NA
ATOM     16  O   UNL     1     -47.755  -5.428 -30.597  0.00  0.00    +0.000 OA
BRANCH  15  17
ATOM     17  C   UNL     1     -46.534  -5.755 -33.147  0.00  0.00    +0.000 C 
BRANCH  17  19
ATOM     18  C   UNL     1     -44.536  -2.858 -33.473  0.00  0.00    +0.000 A 
ATOM     19  C   UNL     1     -45.914  -4.421 -33.362  0.00  0.00    +0.000 A 
ATOM     20  N   UNL     1     -44.592  -4.187 -33.250  0.00  0.00    +0.000 NA
ATOM     21  N   UNL     1     -46.620  -3.306 -33.625  0.00  0.00    +0.000 NA
ATOM     22  N   UNL     1     -45.746  -2.318 -33.702  0.00  0.00    +0.000 NA
BRANCH  18  24
ATOM     23  C   UNL     1     -43.548  -0.639 -33.058  0.00  0.00    +0.000 C 
ATOM     24  C   UNL     1     -43.272  -2.070 -33.476  0.00  0.00    +0.000 C 
ENDBRANCH  18  24
ENDBRANCH  17  19
ENDBRANCH  15  17
ENDBRANCH   1  14
BRANCH   5  25
ATOM     25  C   UNL     1     -42.836  -8.603 -29.379  0.00  0.00    +0.000 C 
ATOM     26  C   UNL     1     -41.749  -7.988 -30.242  0.00  0.00    +0.000 C 
ATOM     27  C   UNL     1     -42.646  -9.061 -30.814  0.00  0.00    +0.000 C 
ENDBRANCH   5  25
TORSDOF 6
ENDMDL
