MODEL 1
REMARK VINA RESULT:      -6.3      0.000      0.000
REMARK  Name = ZINC000120428911 PubChem-124568485
REMARK  3 active torsions:
REMARK  status: ('A' for Active; 'I' for Inactive)
REMARK    1  A    between atoms: C_6  and  N_20
REMARK    2  A    between atoms: C_7  and  C_8
REMARK    3  A    between atoms: C_13  and  C_14
REMARK                            x       y       z     vdW  Elec       q    Type
REMARK                         _______ _______ _______ _____ _____    ______ ____
ROOT
ATOM      1  C   UNL     1     -45.980  -3.304 -31.412  0.00  0.00    +0.000 C 
ATOM      2  C   UNL     1     -46.844  -3.357 -32.674  0.00  0.00    +0.000 C 
ATOM      3  C   UNL     1     -46.751  -4.709 -33.373  0.00  0.00    +0.000 C 
ATOM      4  C   UNL     1     -45.329  -5.143 -33.545  0.00  0.00    +0.000 C 
ATOM      5  C   UNL     1     -43.023  -5.402 -32.610  0.00  0.00    +0.000 C 
ATOM      6  C   UNL     1     -44.503  -3.590 -31.712  0.00  0.00    +0.000 C 
ATOM      7  N   UNL     1     -44.316  -4.736 -32.609  0.00  0.00    +0.000 N 
ATOM      8  O   UNL     1     -45.042  -5.920 -34.496  0.00  0.00    +0.000 OA
ENDROOT
BRANCH   6   9
ATOM      9  C   UNL     1     -43.814  -2.375 -32.253  0.00  0.00    +0.000 A 
ATOM     10  C   UNL     1     -44.354  -1.405 -33.080  0.00  0.00    +0.000 A 
ATOM     11  C   UNL     1     -41.034  -0.166 -32.752  0.00  0.00    +0.000 C 
ATOM     12  C   UNL     1     -42.497  -2.033 -32.029  0.00  0.00    +0.000 A 
ATOM     13  N   UNL     1     -43.386  -0.505 -33.337  0.00  0.00    +0.000 NA
ATOM     14  N   UNL     1     -42.290  -0.892 -32.705  0.00  0.00    +0.000 N 
ENDBRANCH   6   9
BRANCH   1  15
ATOM     15  C   UNL     1     -46.516  -4.170 -30.314  0.00  0.00    +0.000 C 
ATOM     16  N   UNL     1     -45.678  -5.165 -29.707  0.00  0.00    +0.000 NA
ATOM     17  O   UNL     1     -47.714  -4.022 -29.954  0.00  0.00    +0.000 OA
BRANCH  16  23
ATOM     18  C   UNL     1     -46.334  -6.195 -24.881  0.00  0.00    +0.000 C 
ATOM     19  C   UNL     1     -46.371  -6.604 -26.309  0.00  0.00    +0.000 A 
ATOM     20  C   UNL     1     -46.768  -7.898 -26.656  0.00  0.00    +0.000 A 
ATOM     21  C   UNL     1     -46.801  -8.280 -28.000  0.00  0.00    +0.000 A 
ATOM     22  C   UNL     1     -46.439  -7.369 -28.995  0.00  0.00    +0.000 A 
ATOM     23  C   UNL     1     -46.042  -6.070 -28.657  0.00  0.00    +0.000 A 
ATOM     24  C   UNL     1     -46.010  -5.693 -27.306  0.00  0.00    +0.000 A 
ATOM     25  F   UNL     1     -47.185  -9.535 -28.337  0.00  0.00    +0.000 F 
ENDBRANCH  16  23
ENDBRANCH   1  15
TORSDOF 3
ENDMDL
MODEL 2
REMARK VINA RESULT:      -6.1     10.737     14.908
REMARK  Name = ZINC000120428911 PubChem-124568485
REMARK  3 active torsions:
REMARK  status: ('A' for Active; 'I' for Inactive)
REMARK    1  A    between atoms: C_6  and  N_20
REMARK    2  A    between atoms: C_7  and  C_8
REMARK    3  A    between atoms: C_13  and  C_14
REMARK                            x       y       z     vdW  Elec       q    Type
REMARK                         _______ _______ _______ _____ _____    ______ ____
ROOT
ATOM      1  C   UNL     1     -44.495 -16.588 -23.915  0.00  0.00    +0.000 C 
ATOM      2  C   UNL     1     -42.997 -16.485 -24.210  0.00  0.00    +0.000 C 
ATOM      3  C   UNL     1     -42.622 -17.185 -25.512  0.00  0.00    +0.000 C 
ATOM      4  C   UNL     1     -43.200 -18.564 -25.582  0.00  0.00    +0.000 C 
ATOM      5  C   UNL     1     -45.135 -20.113 -25.239  0.00  0.00    +0.000 C 
ATOM      6  C   UNL     1     -44.968 -18.045 -23.832  0.00  0.00    +0.000 C 
ATOM      7  N   UNL     1     -44.435 -18.879 -24.915  0.00  0.00    +0.000 N 
ATOM      8  O   UNL     1     -42.616 -19.432 -26.284  0.00  0.00    +0.000 OA
ENDROOT
BRANCH   6   9
ATOM      9  C   UNL     1     -44.649 -18.644 -22.496  0.00  0.00    +0.000 A 
ATOM     10  C   UNL     1     -43.577 -19.461 -22.180  0.00  0.00    +0.000 A 
ATOM     11  C   UNL     1     -45.209 -19.324 -19.021  0.00  0.00    +0.000 C 
ATOM     12  C   UNL     1     -45.399 -18.492 -21.349  0.00  0.00    +0.000 A 
ATOM     13  N   UNL     1     -43.682 -19.783 -20.877  0.00  0.00    +0.000 NA
ATOM     14  N   UNL     1     -44.769 -19.200 -20.398  0.00  0.00    +0.000 N 
ENDBRANCH   6   9
BRANCH   1  15
ATOM     15  C   UNL     1     -45.322 -15.775 -24.863  0.00  0.00    +0.000 C 
ATOM     16  N   UNL     1     -44.735 -14.670 -25.566  0.00  0.00    +0.000 NA
ATOM     17  O   UNL     1     -46.539 -16.067 -25.011  0.00  0.00    +0.000 OA
BRANCH  16  23
ATOM     18  C   UNL     1     -47.219 -10.480 -26.597  0.00  0.00    +0.000 C 
ATOM     19  C   UNL     1     -46.604 -11.762 -27.031  0.00  0.00    +0.000 A 
ATOM     20  C   UNL     1     -46.657 -12.144 -28.375  0.00  0.00    +0.000 A 
ATOM     21  C   UNL     1     -46.080 -13.350 -28.780  0.00  0.00    +0.000 A 
ATOM     22  C   UNL     1     -45.449 -14.173 -27.843  0.00  0.00    +0.000 A 
ATOM     23  C   UNL     1     -45.390 -13.798 -26.496  0.00  0.00    +0.000 A 
ATOM     24  C   UNL     1     -45.973 -12.586 -26.095  0.00  0.00    +0.000 A 
ATOM     25  F   UNL     1     -46.131 -13.720 -30.082  0.00  0.00    +0.000 F 
ENDBRANCH  16  23
ENDBRANCH   1  15
TORSDOF 3
ENDMDL
MODEL 3
REMARK VINA RESULT:      -6.0     13.984     16.632
REMARK  Name = ZINC000120428911 PubChem-124568485
REMARK  3 active torsions:
REMARK  status: ('A' for Active; 'I' for Inactive)
REMARK    1  A    between atoms: C_6  and  N_20
REMARK    2  A    between atoms: C_7  and  C_8
REMARK    3  A    between atoms: C_13  and  C_14
REMARK                            x       y       z     vdW  Elec       q    Type
REMARK                         _______ _______ _______ _____ _____    ______ ____
ROOT
ATOM      1  C   UNL     1     -45.464 -16.213 -18.759  0.00  0.00    +0.000 C 
ATOM      2  C   UNL     1     -46.832 -15.737 -18.264  0.00  0.00    +0.000 C 
ATOM      3  C   UNL     1     -47.550 -14.886 -19.305  0.00  0.00    +0.000 C 
ATOM      4  C   UNL     1     -46.657 -13.819 -19.857  0.00  0.00    +0.000 C 
ATOM      5  C   UNL     1     -44.423 -13.119 -20.741  0.00  0.00    +0.000 C 
ATOM      6  C   UNL     1     -44.548 -15.042 -19.138  0.00  0.00    +0.000 C 
ATOM      7  N   UNL     1     -45.235 -14.018 -19.934  0.00  0.00    +0.000 N 
ATOM      8  O   UNL     1     -47.177 -12.763 -20.305  0.00  0.00    +0.000 OA
ENDROOT
BRANCH   6   9
ATOM      9  C   UNL     1     -43.915 -14.434 -17.925  0.00  0.00    +0.000 A 
ATOM     10  C   UNL     1     -42.587 -14.520 -17.542  0.00  0.00    +0.000 A 
ATOM     11  C   UNL     1     -43.884 -12.572 -14.861  0.00  0.00    +0.000 C 
ATOM     12  C   UNL     1     -44.570 -13.693 -16.964  0.00  0.00    +0.000 A 
ATOM     13  N   UNL     1     -42.453 -13.844 -16.385  0.00  0.00    +0.000 NA
ATOM     14  N   UNL     1     -43.639 -13.359 -16.055  0.00  0.00    +0.000 N 
ENDBRANCH   6   9
BRANCH   1  15
ATOM     15  C   UNL     1     -45.573 -17.228 -19.855  0.00  0.00    +0.000 C 
ATOM     16  N   UNL     1     -44.668 -17.187 -20.968  0.00  0.00    +0.000 NA
ATOM     17  O   UNL     1     -46.483 -18.098 -19.788  0.00  0.00    +0.000 OA
BRANCH  16  23
ATOM     18  C   UNL     1     -42.685 -21.024 -23.444  0.00  0.00    +0.000 C 
ATOM     19  C   UNL     1     -43.701 -19.946 -23.323  0.00  0.00    +0.000 A 
ATOM     20  C   UNL     1     -44.668 -19.781 -24.320  0.00  0.00    +0.000 A 
ATOM     21  C   UNL     1     -45.621 -18.766 -24.204  0.00  0.00    +0.000 A 
ATOM     22  C   UNL     1     -45.609 -17.919 -23.093  0.00  0.00    +0.000 A 
ATOM     23  C   UNL     1     -44.647 -18.078 -22.090  0.00  0.00    +0.000 A 
ATOM     24  C   UNL     1     -43.691 -19.098 -22.213  0.00  0.00    +0.000 A 
ATOM     25  F   UNL     1     -46.558 -18.606 -25.169  0.00  0.00    +0.000 F 
ENDBRANCH  16  23
ENDBRANCH   1  15
TORSDOF 3
ENDMDL
