MODEL 1
REMARK VINA RESULT:      -5.3      0.000      0.000
REMARK  Name = ZINC000072242259 PubChem-95740472
REMARK  7 active torsions:
REMARK  status: ('A' for Active; 'I' for Inactive)
REMARK    1  A    between atoms: C_2  and  N_19
REMARK    2  A    between atoms: C_3  and  N_19
REMARK    3  A    between atoms: C_5  and  C_6
REMARK    4  A    between atoms: C_5  and  N_19
REMARK    5  A    between atoms: C_6  and  N_20
REMARK    6  A    between atoms: C_7  and  C_8
REMARK    7  A    between atoms: C_12  and  C_13
REMARK                            x       y       z     vdW  Elec       q    Type
REMARK                         _______ _______ _______ _____ _____    ______ ____
ROOT
ATOM      1  C   UNL     1     -46.333  -3.720 -32.009  0.00  0.00    +0.000 C 
ATOM      2  C   UNL     1     -47.341  -4.228 -33.049  0.00  0.00    +0.000 C 
ATOM      3  C   UNL     1     -46.488  -4.902 -34.047  0.00  0.00    +0.000 C 
ATOM      4  C   UNL     1     -44.082  -5.615 -34.403  0.00  0.00    +0.000 C 
ATOM      5  C   UNL     1     -44.931  -4.177 -32.454  0.00  0.00    +0.000 C 
ATOM      6  N   UNL     1     -45.115  -4.847 -33.727  0.00  0.00    +0.000 N 
ATOM      7  O   UNL     1     -46.934  -5.479 -35.073  0.00  0.00    +0.000 OA
ENDROOT
BRANCH   5   8
ATOM      8  C   UNL     1     -44.003  -3.008 -32.590  0.00  0.00    +0.000 A 
ATOM      9  C   UNL     1     -42.671  -3.144 -32.185  0.00  0.00    +0.000 A 
ATOM     10  C   UNL     1     -41.787  -2.067 -32.302  0.00  0.00    +0.000 A 
ATOM     11  C   UNL     1     -42.233  -0.850 -32.825  0.00  0.00    +0.000 A 
ATOM     12  C   UNL     1     -43.563  -0.707 -33.231  0.00  0.00    +0.000 A 
ATOM     13  C   UNL     1     -44.446  -1.784 -33.114  0.00  0.00    +0.000 A 
ATOM     14  F   UNL     1     -41.375   0.193 -32.939  0.00  0.00    +0.000 F 
ENDBRANCH   5   8
BRANCH   1  15
ATOM     15  C   UNL     1     -46.656  -4.270 -30.659  0.00  0.00    +0.000 C 
ATOM     16  N   UNL     1     -46.849  -5.675 -30.484  0.00  0.00    +0.000 NA
ATOM     17  O   UNL     1     -46.765  -3.484 -29.681  0.00  0.00    +0.000 OA
BRANCH  16  18
ATOM     18  C   UNL     1     -47.218  -6.256 -29.203  0.00  0.00    +0.000 C 
BRANCH  18  19
ATOM     19  C   UNL     1     -46.180  -7.303 -28.782  0.00  0.00    +0.000 C 
BRANCH  19  20
ATOM     20  N   UNL     1     -45.602  -7.080 -27.447  0.00  0.00    +0.000 NA
BRANCH  20  22
ATOM     21  C   UNL     1     -46.583  -5.907 -25.552  0.00  0.00    +0.000 C 
ATOM     22  C   UNL     1     -45.993  -5.770 -26.944  0.00  0.00    +0.000 C 
ENDBRANCH  20  22
BRANCH  20  23
ATOM     23  C   UNL     1     -44.145  -7.123 -27.506  0.00  0.00    +0.000 C 
ATOM     24  C   UNL     1     -43.641  -6.190 -28.590  0.00  0.00    +0.000 C 
ENDBRANCH  20  23
ENDBRANCH  19  20
ENDBRANCH  18  19
ENDBRANCH  16  18
ENDBRANCH   1  15
TORSDOF 7
ENDMDL
MODEL 2
REMARK VINA RESULT:      -5.3      1.402      2.237
REMARK  Name = ZINC000072242259 PubChem-95740472
REMARK  7 active torsions:
REMARK  status: ('A' for Active; 'I' for Inactive)
REMARK    1  A    between atoms: C_2  and  N_19
REMARK    2  A    between atoms: C_3  and  N_19
REMARK    3  A    between atoms: C_5  and  C_6
REMARK    4  A    between atoms: C_5  and  N_19
REMARK    5  A    between atoms: C_6  and  N_20
REMARK    6  A    between atoms: C_7  and  C_8
REMARK    7  A    between atoms: C_12  and  C_13
REMARK                            x       y       z     vdW  Elec       q    Type
REMARK                         _______ _______ _______ _____ _____    ______ ____
ROOT
ATOM      1  C   UNL     1     -46.489  -3.748 -31.944  0.00  0.00    +0.000 C 
ATOM      2  C   UNL     1     -47.480  -4.223 -33.016  0.00  0.00    +0.000 C 
ATOM      3  C   UNL     1     -46.611  -4.868 -34.019  0.00  0.00    +0.000 C 
ATOM      4  C   UNL     1     -44.200  -5.575 -34.355  0.00  0.00    +0.000 C 
ATOM      5  C   UNL     1     -45.080  -4.194 -32.380  0.00  0.00    +0.000 C 
ATOM      6  N   UNL     1     -45.244  -4.825 -33.675  0.00  0.00    +0.000 N 
ATOM      7  O   UNL     1     -47.041  -5.414 -35.069  0.00  0.00    +0.000 OA
ENDROOT
BRANCH   5   8
ATOM      8  C   UNL     1     -44.148  -3.023 -32.465  0.00  0.00    +0.000 A 
ATOM      9  C   UNL     1     -42.794  -3.206 -32.166  0.00  0.00    +0.000 A 
ATOM     10  C   UNL     1     -41.906  -2.129 -32.239  0.00  0.00    +0.000 A 
ATOM     11  C   UNL     1     -42.370  -0.864 -32.610  0.00  0.00    +0.000 A 
ATOM     12  C   UNL     1     -43.722  -0.674 -32.909  0.00  0.00    +0.000 A 
ATOM     13  C   UNL     1     -44.610  -1.751 -32.837  0.00  0.00    +0.000 A 
ATOM     14  F   UNL     1     -41.509   0.180 -32.682  0.00  0.00    +0.000 F 
ENDBRANCH   5   8
BRANCH   1  15
ATOM     15  C   UNL     1     -46.836  -4.337 -30.617  0.00  0.00    +0.000 C 
ATOM     16  N   UNL     1     -46.143  -5.492 -30.142  0.00  0.00    +0.000 NA
ATOM     17  O   UNL     1     -47.749  -3.811 -29.927  0.00  0.00    +0.000 OA
BRANCH  16  18
ATOM     18  C   UNL     1     -46.478  -6.136 -28.882  0.00  0.00    +0.000 C 
BRANCH  18  19
ATOM     19  C   UNL     1     -47.213  -7.455 -29.145  0.00  0.00    +0.000 C 
BRANCH  19  20
ATOM     20  N   UNL     1     -46.328  -8.607 -29.384  0.00  0.00    +0.000 NA
BRANCH  20  22
ATOM     21  C   UNL     1     -47.756  -8.503 -31.354  0.00  0.00    +0.000 C 
ATOM     22  C   UNL     1     -46.766  -9.339 -30.565  0.00  0.00    +0.000 C 
ENDBRANCH  20  22
BRANCH  20  23
ATOM     23  C   UNL     1     -46.359  -9.522 -28.249  0.00  0.00    +0.000 C 
ATOM     24  C   UNL     1     -46.288 -10.956 -28.736  0.00  0.00    +0.000 C 
ENDBRANCH  20  23
ENDBRANCH  19  20
ENDBRANCH  18  19
ENDBRANCH  16  18
ENDBRANCH   1  15
TORSDOF 7
ENDMDL
MODEL 3
REMARK VINA RESULT:      -5.3     14.568     17.233
REMARK  Name = ZINC000072242259 PubChem-95740472
REMARK  7 active torsions:
REMARK  status: ('A' for Active; 'I' for Inactive)
REMARK    1  A    between atoms: C_2  and  N_19
REMARK    2  A    between atoms: C_3  and  N_19
REMARK    3  A    between atoms: C_5  and  C_6
REMARK    4  A    between atoms: C_5  and  N_19
REMARK    5  A    between atoms: C_6  and  N_20
REMARK    6  A    between atoms: C_7  and  C_8
REMARK    7  A    between atoms: C_12  and  C_13
REMARK                            x       y       z     vdW  Elec       q    Type
REMARK                         _______ _______ _______ _____ _____    ______ ____
ROOT
ATOM      1  C   UNL     1     -45.564 -18.303 -24.166  0.00  0.00    +0.000 C 
ATOM      2  C   UNL     1     -46.315 -17.098 -24.748  0.00  0.00    +0.000 C 
ATOM      3  C   UNL     1     -45.656 -15.945 -24.104  0.00  0.00    +0.000 C 
ATOM      4  C   UNL     1     -43.665 -15.400 -22.632  0.00  0.00    +0.000 C 
ATOM      5  C   UNL     1     -44.463 -17.763 -23.233  0.00  0.00    +0.000 C 
ATOM      6  N   UNL     1     -44.624 -16.322 -23.219  0.00  0.00    +0.000 N 
ATOM      7  O   UNL     1     -45.968 -14.746 -24.327  0.00  0.00    +0.000 OA
ENDROOT
BRANCH   5   8
ATOM      8  C   UNL     1     -44.600 -18.335 -21.854  0.00  0.00    +0.000 A 
ATOM      9  C   UNL     1     -45.870 -18.419 -21.274  0.00  0.00    +0.000 A 
ATOM     10  C   UNL     1     -46.021 -18.948 -19.989  0.00  0.00    +0.000 A 
ATOM     11  C   UNL     1     -44.903 -19.395 -19.280  0.00  0.00    +0.000 A 
ATOM     12  C   UNL     1     -43.631 -19.312 -19.854  0.00  0.00    +0.000 A 
ATOM     13  C   UNL     1     -43.479 -18.784 -21.139  0.00  0.00    +0.000 A 
ATOM     14  F   UNL     1     -45.052 -19.908 -18.035  0.00  0.00    +0.000 F 
ENDBRANCH   5   8
BRANCH   1  15
ATOM     15  C   UNL     1     -44.965 -19.121 -25.262  0.00  0.00    +0.000 C 
ATOM     16  N   UNL     1     -43.806 -18.653 -25.954  0.00  0.00    +0.000 NA
ATOM     17  O   UNL     1     -45.496 -20.220 -25.575  0.00  0.00    +0.000 OA
BRANCH  16  18
ATOM     18  C   UNL     1     -43.215 -19.384 -27.063  0.00  0.00    +0.000 C 
BRANCH  18  19
ATOM     19  C   UNL     1     -41.843 -19.935 -26.658  0.00  0.00    +0.000 C 
BRANCH  19  20
ATOM     20  N   UNL     1     -41.467 -19.661 -25.262  0.00  0.00    +0.000 NA
BRANCH  20  22
ATOM     21  C   UNL     1     -40.516 -17.583 -24.422  0.00  0.00    +0.000 C 
ATOM     22  C   UNL     1     -40.259 -18.848 -25.218  0.00  0.00    +0.000 C 
ENDBRANCH  20  22
BRANCH  20  23
ATOM     23  C   UNL     1     -41.199 -20.905 -24.549  0.00  0.00    +0.000 C 
ATOM     24  C   UNL     1     -42.359 -21.238 -23.631  0.00  0.00    +0.000 C 
ENDBRANCH  20  23
ENDBRANCH  19  20
ENDBRANCH  18  19
ENDBRANCH  16  18
ENDBRANCH   1  15
TORSDOF 7
ENDMDL
