MODEL 1
REMARK VINA RESULT:      -6.7      0.000      0.000
REMARK  Name = ZINC000524729961
REMARK  9 active torsions:
REMARK  status: ('A' for Active; 'I' for Inactive)
REMARK    1  A    between atoms: C_2  and  O_26
REMARK    2  A    between atoms: C_4  and  C_5
REMARK    3  A    between atoms: C_5  and  C_6
REMARK    4  A    between atoms: C_5  and  C_17
REMARK    5  A    between atoms: C_6  and  C_7
REMARK    6  A    between atoms: C_8  and  C_9
REMARK    7  A    between atoms: C_8  and  N_32
REMARK    8  A    between atoms: C_9  and  C_10
REMARK    9  A    between atoms: C_10  and  C_11
REMARK                            x       y       z     vdW  Elec       q    Type
REMARK                         _______ _______ _______ _____ _____    ______ ____
ROOT
ATOM      1  C   UNL     1     -45.269 -16.009 -24.698  0.00  0.00    +0.000 C 
ENDROOT
BRANCH   1   2
ATOM      2  C   UNL     1     -44.644 -17.354 -24.966  0.00  0.00    +0.000 A 
ATOM      3  C   UNL     1     -42.658 -18.554 -25.247  0.00  0.00    +0.000 A 
ATOM      4  C   UNL     1     -41.173 -18.551 -25.291  0.00  0.00    +0.000 C 
ATOM      5  C   UNL     1     -43.353 -19.746 -25.451  0.00  0.00    +0.000 A 
ATOM      6  C   UNL     1     -44.745 -19.726 -25.408  0.00  0.00    +0.000 A 
ATOM      7  C   UNL     1     -45.410 -18.521 -25.164  0.00  0.00    +0.000 A 
ATOM      8  O   UNL     1     -43.314 -17.421 -25.017  0.00  0.00    +0.000 OA
ATOM      9  O   UNL     1     -45.392 -20.789 -25.593  0.00  0.00    +0.000 OA
ATOM     10  O   UNL     1     -46.801 -18.488 -25.128  0.00  0.00    +0.000 OA
ENDBRANCH   1   2
BRANCH   1  13
ATOM     11  C   UNL     1     -46.394 -13.324 -27.170  0.00  0.00    +0.000 A 
ATOM     12  C   UNL     1     -46.290 -14.096 -26.002  0.00  0.00    +0.000 A 
ATOM     13  C   UNL     1     -45.409 -15.185 -25.941  0.00  0.00    +0.000 A 
ATOM     14  C   UNL     1     -44.623 -15.497 -27.054  0.00  0.00    +0.000 A 
ATOM     15  C   UNL     1     -44.720 -14.735 -28.220  0.00  0.00    +0.000 A 
ATOM     16  C   UNL     1     -45.602 -13.652 -28.280  0.00  0.00    +0.000 A 
ATOM     17  O   UNL     1     -45.688 -12.902 -29.447  0.00  0.00    +0.000 OA
BRANCH  11  19
ATOM     18  C   UNL     1     -46.985 -10.981 -26.642  0.00  0.00    +0.000 C 
ATOM     19  O   UNL     1     -47.267 -12.235 -27.247  0.00  0.00    +0.000 OA
ENDBRANCH  11  19
ENDBRANCH   1  13
BRANCH   1  20
ATOM     20  C   UNL     1     -44.615 -15.241 -23.548  0.00  0.00    +0.000 C 
BRANCH  20  21
ATOM     21  C   UNL     1     -45.550 -15.108 -22.396  0.00  0.00    +0.000 C 
ATOM     22  O   UNL     1     -46.607 -14.432 -22.516  0.00  0.00    +0.000 OA
ATOM     23  N   UNL     1     -45.244 -15.772 -21.169  0.00  0.00    +0.000 NA
BRANCH  23  24
ATOM     24  C   UNL     1     -46.159 -15.816 -20.036  0.00  0.00    +0.000 C 
BRANCH  24  25
ATOM     25  C   UNL     1     -46.225 -17.221 -19.441  0.00  0.00    +0.000 C 
BRANCH  25  26
ATOM     26  C   UNL     1     -45.644 -18.272 -20.380  0.00  0.00    +0.000 C 
BRANCH  26  27
ATOM     27  C   UNL     1     -44.537 -19.042 -19.733  0.00  0.00    +0.000 A 
ATOM     28  C   UNL     1     -42.754 -20.115 -19.386  0.00  0.00    +0.000 A 
ATOM     29  C   UNL     1     -41.540 -20.744 -19.648  0.00  0.00    +0.000 A 
ATOM     30  C   UNL     1     -41.091 -20.733 -20.980  0.00  0.00    +0.000 A 
ATOM     31  C   UNL     1     -41.848 -20.106 -21.990  0.00  0.00    +0.000 A 
ATOM     32  C   UNL     1     -43.064 -19.488 -21.660  0.00  0.00    +0.000 A 
ATOM     33  N   UNL     1     -44.487 -19.322 -18.412  0.00  0.00    +0.000 NA
ATOM     34  N   UNL     1     -43.364 -20.001 -18.191  0.00  0.00    +0.000 NA
ATOM     35  N   UNL     1     -43.456 -19.528 -20.363  0.00  0.00    +0.000 N 
ENDBRANCH  26  27
ENDBRANCH  25  26
ENDBRANCH  24  25
ENDBRANCH  23  24
ENDBRANCH  20  21
ENDBRANCH   1  20
TORSDOF 9
ENDMDL
MODEL 2
REMARK VINA RESULT:      -6.5      8.340     13.906
REMARK  Name = ZINC000524729961
REMARK  9 active torsions:
REMARK  status: ('A' for Active; 'I' for Inactive)
REMARK    1  A    between atoms: C_2  and  O_26
REMARK    2  A    between atoms: C_4  and  C_5
REMARK    3  A    between atoms: C_5  and  C_6
REMARK    4  A    between atoms: C_5  and  C_17
REMARK    5  A    between atoms: C_6  and  C_7
REMARK    6  A    between atoms: C_8  and  C_9
REMARK    7  A    between atoms: C_8  and  N_32
REMARK    8  A    between atoms: C_9  and  C_10
REMARK    9  A    between atoms: C_10  and  C_11
REMARK                            x       y       z     vdW  Elec       q    Type
REMARK                         _______ _______ _______ _____ _____    ______ ____
ROOT
ATOM      1  C   UNL     1     -46.020 -10.018 -30.600  0.00  0.00    +0.000 C 
ENDROOT
BRANCH   1   2
ATOM      2  C   UNL     1     -45.226 -10.609 -31.737  0.00  0.00    +0.000 A 
ATOM      3  C   UNL     1     -45.293 -11.519 -33.889  0.00  0.00    +0.000 A 
ATOM      4  C   UNL     1     -46.102 -11.919 -35.070  0.00  0.00    +0.000 C 
ATOM      5  C   UNL     1     -43.912 -11.708 -33.902  0.00  0.00    +0.000 A 
ATOM      6  C   UNL     1     -43.173 -11.329 -32.784  0.00  0.00    +0.000 A 
ATOM      7  C   UNL     1     -43.827 -10.771 -31.682  0.00  0.00    +0.000 A 
ATOM      8  O   UNL     1     -45.892 -10.987 -32.828  0.00  0.00    +0.000 OA
ATOM      9  O   UNL     1     -41.926 -11.494 -32.773  0.00  0.00    +0.000 OA
ATOM     10  O   UNL     1     -43.100 -10.397 -30.556  0.00  0.00    +0.000 OA
ENDBRANCH   1   2
BRANCH   1  13
ATOM     11  C   UNL     1     -46.622 -11.457 -27.114  0.00  0.00    +0.000 A 
ATOM     12  C   UNL     1     -46.437 -10.538 -28.159  0.00  0.00    +0.000 A 
ATOM     13  C   UNL     1     -46.200 -10.982 -29.467  0.00  0.00    +0.000 A 
ATOM     14  C   UNL     1     -46.156 -12.354 -29.731  0.00  0.00    +0.000 A 
ATOM     15  C   UNL     1     -46.338 -13.276 -28.697  0.00  0.00    +0.000 A 
ATOM     16  C   UNL     1     -46.570 -12.830 -27.392  0.00  0.00    +0.000 A 
ATOM     17  O   UNL     1     -46.750 -13.759 -26.374  0.00  0.00    +0.000 OA
BRANCH  11  19
ATOM     18  C   UNL     1     -45.811 -10.675 -24.911  0.00  0.00    +0.000 C 
ATOM     19  O   UNL     1     -46.859 -11.030 -25.804  0.00  0.00    +0.000 OA
ENDBRANCH  11  19
ENDBRANCH   1  13
BRANCH   1  20
ATOM     20  C   UNL     1     -47.333  -9.364 -31.035  0.00  0.00    +0.000 C 
BRANCH  20  21
ATOM     21  C   UNL     1     -47.222  -7.878 -31.008  0.00  0.00    +0.000 C 
ATOM     22  O   UNL     1     -47.323  -7.218 -32.076  0.00  0.00    +0.000 OA
ATOM     23  N   UNL     1     -47.023  -7.216 -29.758  0.00  0.00    +0.000 NA
BRANCH  23  24
ATOM     24  C   UNL     1     -47.040  -5.767 -29.610  0.00  0.00    +0.000 C 
BRANCH  24  25
ATOM     25  C   UNL     1     -45.622  -5.202 -29.580  0.00  0.00    +0.000 C 
BRANCH  25  26
ATOM     26  C   UNL     1     -45.114  -4.849 -30.974  0.00  0.00    +0.000 C 
BRANCH  26  27
ATOM     27  C   UNL     1     -45.057  -3.369 -31.183  0.00  0.00    +0.000 A 
ATOM     28  C   UNL     1     -44.499  -1.438 -31.822  0.00  0.00    +0.000 A 
ATOM     29  C   UNL     1     -43.775  -0.435 -32.461  0.00  0.00    +0.000 A 
ATOM     30  C   UNL     1     -42.650  -0.836 -33.203  0.00  0.00    +0.000 A 
ATOM     31  C   UNL     1     -42.289  -2.196 -33.286  0.00  0.00    +0.000 A 
ATOM     32  C   UNL     1     -43.062  -3.158 -32.617  0.00  0.00    +0.000 A 
ATOM     33  N   UNL     1     -45.956  -2.501 -30.670  0.00  0.00    +0.000 NA
ATOM     34  N   UNL     1     -45.605  -1.281 -31.070  0.00  0.00    +0.000 NA
ATOM     35  N   UNL     1     -44.135  -2.722 -31.912  0.00  0.00    +0.000 N 
ENDBRANCH  26  27
ENDBRANCH  25  26
ENDBRANCH  24  25
ENDBRANCH  23  24
ENDBRANCH  20  21
ENDBRANCH   1  20
TORSDOF 9
ENDMDL
MODEL 3
REMARK VINA RESULT:      -6.5     11.518     15.735
REMARK  Name = ZINC000524729961
REMARK  9 active torsions:
REMARK  status: ('A' for Active; 'I' for Inactive)
REMARK    1  A    between atoms: C_2  and  O_26
REMARK    2  A    between atoms: C_4  and  C_5
REMARK    3  A    between atoms: C_5  and  C_6
REMARK    4  A    between atoms: C_5  and  C_17
REMARK    5  A    between atoms: C_6  and  C_7
REMARK    6  A    between atoms: C_8  and  C_9
REMARK    7  A    between atoms: C_8  and  N_32
REMARK    8  A    between atoms: C_9  and  C_10
REMARK    9  A    between atoms: C_10  and  C_11
REMARK                            x       y       z     vdW  Elec       q    Type
REMARK                         _______ _______ _______ _____ _____    ______ ____
ROOT
ATOM      1  C   UNL     1     -46.352  -5.183 -29.026  0.00  0.00    +0.000 C 
ENDROOT
BRANCH   1   2
ATOM      2  C   UNL     1     -45.831  -6.558 -29.354  0.00  0.00    +0.000 A 
ATOM      3  C   UNL     1     -46.371  -8.750 -29.960  0.00  0.00    +0.000 A 
ATOM      4  C   UNL     1     -47.420  -9.752 -30.284  0.00  0.00    +0.000 C 
ATOM      5  C   UNL     1     -45.028  -9.126 -29.977  0.00  0.00    +0.000 A 
ATOM      6  C   UNL     1     -44.062  -8.172 -29.668  0.00  0.00    +0.000 A 
ATOM      7  C   UNL     1     -44.455  -6.868 -29.351  0.00  0.00    +0.000 A 
ATOM      8  O   UNL     1     -46.719  -7.504 -29.656  0.00  0.00    +0.000 OA
ATOM      9  O   UNL     1     -42.844  -8.490 -29.673  0.00  0.00    +0.000 OA
ATOM     10  O   UNL     1     -43.498  -5.910 -29.033  0.00  0.00    +0.000 OA
ENDBRANCH   1   2
BRANCH   1  13
ATOM     11  C   UNL     1     -46.693  -5.873 -25.286  0.00  0.00    +0.000 A 
ATOM     12  C   UNL     1     -46.418  -6.052 -26.650  0.00  0.00    +0.000 A 
ATOM     13  C   UNL     1     -46.658  -5.020 -27.568  0.00  0.00    +0.000 A 
ATOM     14  C   UNL     1     -47.168  -3.800 -27.115  0.00  0.00    +0.000 A 
ATOM     15  C   UNL     1     -47.445  -3.614 -25.758  0.00  0.00    +0.000 A 
ATOM     16  C   UNL     1     -47.210  -4.647 -24.846  0.00  0.00    +0.000 A 
ATOM     17  O   UNL     1     -47.490  -4.446 -23.499  0.00  0.00    +0.000 OA
BRANCH  11  19
ATOM     18  C   UNL     1     -47.387  -7.946 -24.125  0.00  0.00    +0.000 C 
ATOM     19  O   UNL     1     -46.461  -6.892 -24.357  0.00  0.00    +0.000 OA
ENDBRANCH  11  19
ENDBRANCH   1  13
BRANCH   1  20
ATOM     20  C   UNL     1     -47.502  -4.725 -29.926  0.00  0.00    +0.000 C 
BRANCH  20  21
ATOM     21  C   UNL     1     -46.983  -4.073 -31.162  0.00  0.00    +0.000 C 
ATOM     22  O   UNL     1     -47.320  -4.510 -32.295  0.00  0.00    +0.000 OA
ATOM     23  N   UNL     1     -46.122  -2.940 -31.043  0.00  0.00    +0.000 NA
BRANCH  23  24
ATOM     24  C   UNL     1     -45.677  -2.153 -32.186  0.00  0.00    +0.000 C 
BRANCH  24  25
ATOM     25  C   UNL     1     -44.687  -1.073 -31.755  0.00  0.00    +0.000 C 
BRANCH  25  26
ATOM     26  C   UNL     1     -43.846  -0.566 -32.921  0.00  0.00    +0.000 C 
BRANCH  26  27
ATOM     27  C   UNL     1     -42.418  -0.995 -32.802  0.00  0.00    +0.000 A 
ATOM     28  C   UNL     1     -40.617  -2.085 -32.933  0.00  0.00    +0.000 A 
ATOM     29  C   UNL     1     -39.742  -3.123 -33.239  0.00  0.00    +0.000 A 
ATOM     30  C   UNL     1     -40.286  -4.245 -33.889  0.00  0.00    +0.000 A 
ATOM     31  C   UNL     1     -41.658  -4.297 -34.208  0.00  0.00    +0.000 A 
ATOM     32  C   UNL     1     -42.488  -3.216 -33.872  0.00  0.00    +0.000 A 
ATOM     33  N   UNL     1     -41.448  -0.237 -32.243  0.00  0.00    +0.000 NA
ATOM     34  N   UNL     1     -40.311  -0.924 -32.323  0.00  0.00    +0.000 NA
ATOM     35  N   UNL     1     -41.916  -2.159 -33.244  0.00  0.00    +0.000 N 
ENDBRANCH  26  27
ENDBRANCH  25  26
ENDBRANCH  24  25
ENDBRANCH  23  24
ENDBRANCH  20  21
ENDBRANCH   1  20
TORSDOF 9
ENDMDL
