MODEL 1
REMARK VINA RESULT:      -6.1      0.000      0.000
REMARK  Name = ZINC000079361855 ZINC79361855 PubChem-96551248
REMARK  3 active torsions:
REMARK  status: ('A' for Active; 'I' for Inactive)
REMARK    1  A    between atoms: C_4  and  N_19
REMARK    2  A    between atoms: C_7  and  C_8
REMARK    3  A    between atoms: C_12  and  C_13
REMARK                            x       y       z     vdW  Elec       q    Type
REMARK                         _______ _______ _______ _____ _____    ______ ____
ROOT
ATOM      1  C   UNL     1     -46.010  -3.355 -31.399  0.00  0.00    +0.000 C 
ATOM      2  C   UNL     1     -46.838  -3.456 -32.682  0.00  0.00    +0.000 C 
ATOM      3  C   UNL     1     -46.680  -4.815 -33.355  0.00  0.00    +0.000 C 
ATOM      4  C   UNL     1     -45.238  -5.189 -33.496  0.00  0.00    +0.000 C 
ATOM      5  C   UNL     1     -44.516  -3.598 -31.653  0.00  0.00    +0.000 C 
ATOM      6  C   UNL     1     -42.952  -5.366 -32.494  0.00  0.00    +0.000 C 
ATOM      7  N   UNL     1     -44.267  -4.745 -32.533  0.00  0.00    +0.000 N 
ATOM      8  O   UNL     1     -44.895  -5.945 -34.444  0.00  0.00    +0.000 OA
ENDROOT
BRANCH   5   9
ATOM      9  C   UNL     1     -43.852  -2.366 -32.189  0.00  0.00    +0.000 A 
ATOM     10  C   UNL     1     -44.438  -1.352 -32.927  0.00  0.00    +0.000 A 
ATOM     11  C   UNL     1     -42.516  -2.052 -32.052  0.00  0.00    +0.000 A 
ATOM     12  C   UNL     1     -41.082  -0.174 -32.806  0.00  0.00    +0.000 C 
ATOM     13  N   UNL     1     -43.477  -0.455 -33.218  0.00  0.00    +0.000 NA
ATOM     14  N   UNL     1     -42.343  -0.883 -32.691  0.00  0.00    +0.000 N 
ENDBRANCH   5   9
BRANCH   1  15
ATOM     15  C   UNL     1     -46.549  -4.225 -30.304  0.00  0.00    +0.000 C 
ATOM     16  N   UNL     1     -45.728  -5.253 -29.729  0.00  0.00    +0.000 NA
ATOM     17  O   UNL     1     -47.736  -4.051 -29.919  0.00  0.00    +0.000 OA
BRANCH  16  21
ATOM     18  C   UNL     1     -46.378  -6.148 -24.923  0.00  0.00    +0.000 C 
ATOM     19  C   UNL     1     -46.416  -6.606 -26.337  0.00  0.00    +0.000 A 
ATOM     20  C   UNL     1     -46.059  -5.730 -27.363  0.00  0.00    +0.000 A 
ATOM     21  C   UNL     1     -46.098  -6.168 -28.690  0.00  0.00    +0.000 A 
ATOM     22  C   UNL     1     -46.496  -7.483 -28.963  0.00  0.00    +0.000 A 
ATOM     23  C   UNL     1     -46.846  -8.330 -27.911  0.00  0.00    +0.000 A 
ATOM     24  N   UNL     1     -46.799  -7.878 -26.628  0.00  0.00    +0.000 NA
ENDBRANCH  16  21
ENDBRANCH   1  15
TORSDOF 3
ENDMDL
MODEL 2
REMARK VINA RESULT:      -5.9     14.802     17.456
REMARK  Name = ZINC000079361855 ZINC79361855 PubChem-96551248
REMARK  3 active torsions:
REMARK  status: ('A' for Active; 'I' for Inactive)
REMARK    1  A    between atoms: C_4  and  N_19
REMARK    2  A    between atoms: C_7  and  C_8
REMARK    3  A    between atoms: C_12  and  C_13
REMARK                            x       y       z     vdW  Elec       q    Type
REMARK                         _______ _______ _______ _____ _____    ______ ____
ROOT
ATOM      1  C   UNL     1     -45.815 -18.226 -20.350  0.00  0.00    +0.000 C 
ATOM      2  C   UNL     1     -46.062 -19.553 -19.628  0.00  0.00    +0.000 C 
ATOM      3  C   UNL     1     -45.082 -19.767 -18.481  0.00  0.00    +0.000 C 
ATOM      4  C   UNL     1     -43.670 -19.534 -18.919  0.00  0.00    +0.000 C 
ATOM      5  C   UNL     1     -44.389 -18.127 -20.908  0.00  0.00    +0.000 C 
ATOM      6  C   UNL     1     -42.001 -18.130 -20.146  0.00  0.00    +0.000 C 
ATOM      7  N   UNL     1     -43.371 -18.581 -19.954  0.00  0.00    +0.000 N 
ATOM      8  O   UNL     1     -42.741 -20.147 -18.330  0.00  0.00    +0.000 OA
ENDROOT
BRANCH   5   9
ATOM      9  C   UNL     1     -44.264 -18.866 -22.206  0.00  0.00    +0.000 A 
ATOM     10  C   UNL     1     -43.391 -19.899 -22.501  0.00  0.00    +0.000 A 
ATOM     11  C   UNL     1     -44.995 -18.611 -23.347  0.00  0.00    +0.000 A 
ATOM     12  C   UNL     1     -45.047 -19.571 -25.633  0.00  0.00    +0.000 C 
ATOM     13  N   UNL     1     -43.601 -20.254 -23.783  0.00  0.00    +0.000 NA
ATOM     14  N   UNL     1     -44.556 -19.481 -24.271  0.00  0.00    +0.000 N 
ENDBRANCH   5   9
BRANCH   1  15
ATOM     15  C   UNL     1     -46.178 -17.042 -19.505  0.00  0.00    +0.000 C 
ATOM     16  N   UNL     1     -45.349 -15.870 -19.511  0.00  0.00    +0.000 NA
ATOM     17  O   UNL     1     -47.205 -17.108 -18.778  0.00  0.00    +0.000 OA
BRANCH  16  21
ATOM     18  C   UNL     1     -47.015 -11.233 -19.320  0.00  0.00    +0.000 C 
ATOM     19  C   UNL     1     -46.369 -12.399 -18.662  0.00  0.00    +0.000 A 
ATOM     20  C   UNL     1     -46.161 -13.578 -19.381  0.00  0.00    +0.000 A 
ATOM     21  C   UNL     1     -45.553 -14.669 -18.756  0.00  0.00    +0.000 A 
ATOM     22  C   UNL     1     -45.162 -14.558 -17.415  0.00  0.00    +0.000 A 
ATOM     23  C   UNL     1     -45.386 -13.363 -16.729  0.00  0.00    +0.000 A 
ATOM     24  N   UNL     1     -45.981 -12.316 -17.362  0.00  0.00    +0.000 NA
ENDBRANCH  16  21
ENDBRANCH   1  15
TORSDOF 3
ENDMDL
MODEL 3
REMARK VINA RESULT:      -5.9     10.181     15.168
REMARK  Name = ZINC000079361855 ZINC79361855 PubChem-96551248
REMARK  3 active torsions:
REMARK  status: ('A' for Active; 'I' for Inactive)
REMARK    1  A    between atoms: C_4  and  N_19
REMARK    2  A    between atoms: C_7  and  C_8
REMARK    3  A    between atoms: C_12  and  C_13
REMARK                            x       y       z     vdW  Elec       q    Type
REMARK                         _______ _______ _______ _____ _____    ______ ____
ROOT
ATOM      1  C   UNL     1     -44.586 -16.473 -23.877  0.00  0.00    +0.000 C 
ATOM      2  C   UNL     1     -43.090 -16.354 -24.176  0.00  0.00    +0.000 C 
ATOM      3  C   UNL     1     -42.720 -17.021 -25.496  0.00  0.00    +0.000 C 
ATOM      4  C   UNL     1     -43.277 -18.406 -25.582  0.00  0.00    +0.000 C 
ATOM      5  C   UNL     1     -45.051 -17.935 -23.827  0.00  0.00    +0.000 C 
ATOM      6  C   UNL     1     -45.203 -19.975 -25.276  0.00  0.00    +0.000 C 
ATOM      7  N   UNL     1     -44.513 -18.742 -24.927  0.00  0.00    +0.000 N 
ATOM      8  O   UNL     1     -42.675 -19.263 -26.282  0.00  0.00    +0.000 OA
ENDROOT
BRANCH   5   9
ATOM      9  C   UNL     1     -44.728 -18.561 -22.504  0.00  0.00    +0.000 A 
ATOM     10  C   UNL     1     -43.644 -19.368 -22.203  0.00  0.00    +0.000 A 
ATOM     11  C   UNL     1     -45.489 -18.455 -21.360  0.00  0.00    +0.000 A 
ATOM     12  C   UNL     1     -45.302 -19.349 -19.054  0.00  0.00    +0.000 C 
ATOM     13  N   UNL     1     -43.754 -19.727 -20.909  0.00  0.00    +0.000 NA
ATOM     14  N   UNL     1     -44.853 -19.177 -20.423  0.00  0.00    +0.000 N 
ENDBRANCH   5   9
BRANCH   1  15
ATOM     15  C   UNL     1     -45.420 -15.642 -24.803  0.00  0.00    +0.000 C 
ATOM     16  N   UNL     1     -44.847 -14.508 -25.470  0.00  0.00    +0.000 NA
ATOM     17  O   UNL     1     -46.633 -15.946 -24.964  0.00  0.00    +0.000 OA
BRANCH  16  21
ATOM     18  C   UNL     1     -46.099 -13.328 -30.091  0.00  0.00    +0.000 C 
ATOM     19  C   UNL     1     -46.125 -13.036 -28.634  0.00  0.00    +0.000 A 
ATOM     20  C   UNL     1     -45.483 -13.895 -27.740  0.00  0.00    +0.000 A 
ATOM     21  C   UNL     1     -45.511 -13.614 -26.371  0.00  0.00    +0.000 A 
ATOM     22  C   UNL     1     -46.187 -12.471 -25.923  0.00  0.00    +0.000 A 
ATOM     23  C   UNL     1     -46.817 -11.636 -26.847  0.00  0.00    +0.000 A 
ATOM     24  N   UNL     1     -46.774 -11.933 -28.174  0.00  0.00    +0.000 NA
ENDBRANCH  16  21
ENDBRANCH   1  15
TORSDOF 3
ENDMDL
