MODEL 1
REMARK VINA RESULT:      -5.3      0.000      0.000
REMARK  Name = ZINC000011845161 MCULE-6424288385 MolPort-005-300-936
REMARK  9 active torsions:
REMARK  status: ('A' for Active; 'I' for Inactive)
REMARK    1  A    between atoms: C_2  and  C_3
REMARK    2  A    between atoms: C_2  and  N_18
REMARK    3  A    between atoms: C_3  and  C_4
REMARK    4  A    between atoms: C_4  and  O_22
REMARK    5  A    between atoms: C_6  and  C_13
REMARK    6  A    between atoms: C_14  and  C_15
REMARK    7  A    between atoms: C_14  and  N_21
REMARK    8  A    between atoms: C_15  and  O_26
REMARK    9  A    between atoms: C_16  and  O_26
REMARK                            x       y       z     vdW  Elec       q    Type
REMARK                         _______ _______ _______ _____ _____    ______ ____
ROOT
ATOM      1  C   UNL     1     -45.591 -15.958 -21.910  0.00  0.00    +0.000 A 
ATOM      2  C   UNL     1     -45.435 -14.688 -23.648  0.00  0.00    +0.000 A 
ATOM      3  C   UNL     1     -46.069 -13.915 -22.674  0.00  0.00    +0.000 A 
ATOM      4  C   UNL     1     -46.146 -14.758 -21.584  0.00  0.00    +0.000 A 
ATOM      5  C   UNL     1     -46.675 -14.551 -20.321  0.00  0.00    +0.000 A 
ATOM      6  C   UNL     1     -47.176 -15.388 -18.078  0.00  0.00    +0.000 C 
ATOM      7  C   UNL     1     -46.083 -16.798 -19.765  0.00  0.00    +0.000 A 
ATOM      8  C   UNL     1     -45.045 -18.311 -21.388  0.00  0.00    +0.000 C 
ATOM      9  N   UNL     1     -45.134 -15.932 -23.182  0.00  0.00    +0.000 N 
ATOM     10  N   UNL     1     -46.629 -15.581 -19.418  0.00  0.00    +0.000 N 
ATOM     11  N   UNL     1     -45.563 -16.997 -21.022  0.00  0.00    +0.000 N 
ATOM     12  O   UNL     1     -46.063 -17.739 -18.922  0.00  0.00    +0.000 OA
ATOM     13  O   UNL     1     -47.185 -13.438 -20.015  0.00  0.00    +0.000 OA
ENDROOT
BRANCH   2  14
ATOM     14  C   UNL     1     -45.157 -14.189 -25.012  0.00  0.00    +0.000 C 
ATOM     15  N   UNL     1     -46.129 -14.320 -26.051  0.00  0.00    +0.000 NA
ATOM     16  O   UNL     1     -44.056 -13.624 -25.254  0.00  0.00    +0.000 OA
BRANCH  15  17
ATOM     17  C   UNL     1     -45.891 -13.840 -27.401  0.00  0.00    +0.000 C 
BRANCH  17  18
ATOM     18  C   UNL     1     -46.884 -12.785 -27.735  0.00  0.00    +0.000 C 
ATOM     19  O   UNL     1     -47.412 -12.112 -26.809  0.00  0.00    +0.000 OA
BRANCH  18  20
ATOM     20  O   UNL     1     -47.191 -12.529 -29.071  0.00  0.00    +0.000 OA
BRANCH  20  21
ATOM     21  C   UNL     1     -46.193 -12.525 -30.081  0.00  0.00    +0.000 C 
ATOM     22  C   UNL     1     -46.102 -11.143 -30.693  0.00  0.00    +0.000 C 
ENDBRANCH  20  21
ENDBRANCH  18  20
ENDBRANCH  17  18
ENDBRANCH  15  17
ENDBRANCH   2  14
BRANCH   9  23
ATOM     23  C   UNL     1     -44.372 -16.971 -23.873  0.00  0.00    +0.000 C 
BRANCH  23  24
ATOM     24  C   UNL     1     -45.284 -17.819 -24.754  0.00  0.00    +0.000 C 
BRANCH  24  25
ATOM     25  C   UNL     1     -44.692 -18.028 -26.137  0.00  0.00    +0.000 C 
BRANCH  25  27
ATOM     26  C   UNL     1     -45.155 -20.014 -25.298  0.00  0.00    +0.000 C 
ATOM     27  O   UNL     1     -44.673 -19.387 -26.447  0.00  0.00    +0.000 OA
ENDBRANCH  25  27
ENDBRANCH  24  25
ENDBRANCH  23  24
ENDBRANCH   9  23
TORSDOF 9
ENDMDL
MODEL 2
REMARK VINA RESULT:      -5.2      7.570     13.459
REMARK  Name = ZINC000011845161 MCULE-6424288385 MolPort-005-300-936
REMARK  9 active torsions:
REMARK  status: ('A' for Active; 'I' for Inactive)
REMARK    1  A    between atoms: C_2  and  C_3
REMARK    2  A    between atoms: C_2  and  N_18
REMARK    3  A    between atoms: C_3  and  C_4
REMARK    4  A    between atoms: C_4  and  O_22
REMARK    5  A    between atoms: C_6  and  C_13
REMARK    6  A    between atoms: C_14  and  C_15
REMARK    7  A    between atoms: C_14  and  N_21
REMARK    8  A    between atoms: C_15  and  O_26
REMARK    9  A    between atoms: C_16  and  O_26
REMARK                            x       y       z     vdW  Elec       q    Type
REMARK                         _______ _______ _______ _____ _____    ______ ____
ROOT
ATOM      1  C   UNL     1     -44.626  -4.581 -32.291  0.00  0.00    +0.000 A 
ATOM      2  C   UNL     1     -45.913  -5.766 -31.028  0.00  0.00    +0.000 A 
ATOM      3  C   UNL     1     -46.071  -4.449 -30.594  0.00  0.00    +0.000 A 
ATOM      4  C   UNL     1     -45.237  -3.728 -31.424  0.00  0.00    +0.000 A 
ATOM      5  C   UNL     1     -44.971  -2.369 -31.473  0.00  0.00    +0.000 A 
ATOM      6  C   UNL     1     -43.781  -0.486 -32.482  0.00  0.00    +0.000 C 
ATOM      7  C   UNL     1     -43.449  -2.788 -33.266  0.00  0.00    +0.000 A 
ATOM      8  C   UNL     1     -42.995  -5.051 -34.086  0.00  0.00    +0.000 C 
ATOM      9  N   UNL     1     -45.040  -5.848 -32.070  0.00  0.00    +0.000 N 
ATOM     10  N   UNL     1     -44.077  -1.914 -32.407  0.00  0.00    +0.000 N 
ATOM     11  N   UNL     1     -43.716  -4.136 -33.209  0.00  0.00    +0.000 N 
ATOM     12  O   UNL     1     -42.617  -2.349 -34.110  0.00  0.00    +0.000 OA
ATOM     13  O   UNL     1     -45.541  -1.576 -30.673  0.00  0.00    +0.000 OA
ENDROOT
BRANCH   2  14
ATOM     14  C   UNL     1     -46.614  -6.907 -30.399  0.00  0.00    +0.000 C 
ATOM     15  N   UNL     1     -46.019  -7.621 -29.313  0.00  0.00    +0.000 NA
ATOM     16  O   UNL     1     -47.756  -7.239 -30.815  0.00  0.00    +0.000 OA
BRANCH  15  17
ATOM     17  C   UNL     1     -46.678  -8.744 -28.671  0.00  0.00    +0.000 C 
BRANCH  17  18
ATOM     18  C   UNL     1     -46.207 -10.013 -29.285  0.00  0.00    +0.000 C 
ATOM     19  O   UNL     1     -44.977 -10.176 -29.511  0.00  0.00    +0.000 OA
BRANCH  18  20
ATOM     20  O   UNL     1     -47.127 -11.022 -29.570  0.00  0.00    +0.000 OA
BRANCH  20  21
ATOM     21  C   UNL     1     -46.791 -12.397 -29.452  0.00  0.00    +0.000 C 
ATOM     22  C   UNL     1     -47.041 -12.856 -28.031  0.00  0.00    +0.000 C 
ENDBRANCH  20  21
ENDBRANCH  18  20
ENDBRANCH  17  18
ENDBRANCH  15  17
ENDBRANCH   2  14
BRANCH   9  23
ATOM     23  C   UNL     1     -44.714  -7.039 -32.854  0.00  0.00    +0.000 C 
BRANCH  23  24
ATOM     24  C   UNL     1     -45.795  -7.315 -33.895  0.00  0.00    +0.000 C 
BRANCH  24  25
ATOM     25  C   UNL     1     -46.429  -8.681 -33.695  0.00  0.00    +0.000 C 
BRANCH  25  27
ATOM     26  C   UNL     1     -45.632 -10.683 -33.223  0.00  0.00    +0.000 C 
ATOM     27  O   UNL     1     -45.735  -9.389 -32.713  0.00  0.00    +0.000 OA
ENDBRANCH  25  27
ENDBRANCH  24  25
ENDBRANCH  23  24
ENDBRANCH   9  23
TORSDOF 9
ENDMDL
MODEL 3
REMARK VINA RESULT:      -5.1     12.048     15.960
REMARK  Name = ZINC000011845161 MCULE-6424288385 MolPort-005-300-936
REMARK  9 active torsions:
REMARK  status: ('A' for Active; 'I' for Inactive)
REMARK    1  A    between atoms: C_2  and  C_3
REMARK    2  A    between atoms: C_2  and  N_18
REMARK    3  A    between atoms: C_3  and  C_4
REMARK    4  A    between atoms: C_4  and  O_22
REMARK    5  A    between atoms: C_6  and  C_13
REMARK    6  A    between atoms: C_14  and  C_15
REMARK    7  A    between atoms: C_14  and  N_21
REMARK    8  A    between atoms: C_15  and  O_26
REMARK    9  A    between atoms: C_16  and  O_26
REMARK                            x       y       z     vdW  Elec       q    Type
REMARK                         _______ _______ _______ _____ _____    ______ ____
ROOT
ATOM      1  C   UNL     1     -41.410  -2.595 -33.051  0.00  0.00    +0.000 A 
ATOM      2  C   UNL     1     -43.553  -2.472 -32.823  0.00  0.00    +0.000 A 
ATOM      3  C   UNL     1     -43.049  -1.289 -32.278  0.00  0.00    +0.000 A 
ATOM      4  C   UNL     1     -41.684  -1.406 -32.446  0.00  0.00    +0.000 A 
ATOM      5  C   UNL     1     -40.657  -0.543 -32.100  0.00  0.00    +0.000 A 
ATOM      6  C   UNL     1     -38.268  -0.026 -32.026  0.00  0.00    +0.000 C 
ATOM      7  C   UNL     1     -39.101  -2.132 -32.971  0.00  0.00    +0.000 A 
ATOM      8  C   UNL     1     -39.817  -4.291 -33.881  0.00  0.00    +0.000 C 
ATOM      9  N   UNL     1     -42.556  -3.265 -33.303  0.00  0.00    +0.000 N 
ATOM     10  N   UNL     1     -39.369  -0.918 -32.377  0.00  0.00    +0.000 N 
ATOM     11  N   UNL     1     -40.126  -2.985 -33.308  0.00  0.00    +0.000 N 
ATOM     12  O   UNL     1     -37.905  -2.466 -33.205  0.00  0.00    +0.000 OA
ATOM     13  O   UNL     1     -40.910   0.562 -31.543  0.00  0.00    +0.000 OA
ENDROOT
BRANCH   2  14
ATOM     14  C   UNL     1     -44.996  -2.794 -32.843  0.00  0.00    +0.000 C 
ATOM     15  N   UNL     1     -45.598  -3.516 -31.767  0.00  0.00    +0.000 NA
ATOM     16  O   UNL     1     -45.704  -2.409 -33.812  0.00  0.00    +0.000 OA
BRANCH  15  17
ATOM     17  C   UNL     1     -47.012  -3.849 -31.752  0.00  0.00    +0.000 C 
BRANCH  17  18
ATOM     18  C   UNL     1     -47.349  -4.525 -30.471  0.00  0.00    +0.000 C 
ATOM     19  O   UNL     1     -47.345  -3.862 -29.399  0.00  0.00    +0.000 OA
BRANCH  18  20
ATOM     20  O   UNL     1     -47.700  -5.875 -30.478  0.00  0.00    +0.000 OA
BRANCH  20  21
ATOM     21  C   UNL     1     -46.992  -6.836 -29.710  0.00  0.00    +0.000 C 
ATOM     22  C   UNL     1     -45.528  -6.809 -30.094  0.00  0.00    +0.000 C 
ENDBRANCH  20  21
ENDBRANCH  18  20
ENDBRANCH  17  18
ENDBRANCH  15  17
ENDBRANCH   2  14
BRANCH   9  23
ATOM     23  C   UNL     1     -42.706  -4.519 -34.042  0.00  0.00    +0.000 C 
BRANCH  23  24
ATOM     24  C   UNL     1     -42.927  -5.688 -33.087  0.00  0.00    +0.000 C 
BRANCH  24  25
ATOM     25  C   UNL     1     -44.040  -6.603 -33.571  0.00  0.00    +0.000 C 
BRANCH  25  27
ATOM     26  C   UNL     1     -46.164  -6.461 -34.148  0.00  0.00    +0.000 C 
ATOM     27  O   UNL     1     -44.914  -5.894 -34.396  0.00  0.00    +0.000 OA
ENDBRANCH  25  27
ENDBRANCH  24  25
ENDBRANCH  23  24
ENDBRANCH   9  23
TORSDOF 9
ENDMDL
