MODEL 1
REMARK VINA RESULT:      -6.2      0.000      0.000
REMARK  Name = ZINC000169781247 ChemDiv-S640-0707 MolPort-044-356-519 PubChem-91923255
REMARK  6 active torsions:
REMARK  status: ('A' for Active; 'I' for Inactive)
REMARK    1  A    between atoms: C_2  and  C_3
REMARK    2  A    between atoms: C_5  and  C_6
REMARK    3  A    between atoms: C_6  and  C_7
REMARK    4  A    between atoms: C_7  and  C_8
REMARK    5  A    between atoms: C_10  and  O_24
REMARK    6  A    between atoms: C_13  and  C_14
REMARK                            x       y       z     vdW  Elec       q    Type
REMARK                         _______ _______ _______ _____ _____    ______ ____
ROOT
ATOM      1  C   UNL     1     -46.293 -15.605 -24.609  0.00  0.00    +0.000 C 
ATOM      2  C   UNL     1     -46.325 -17.101 -24.884  0.00  0.00    +0.000 C 
ATOM      3  C   UNL     1     -44.716 -18.711 -25.990  0.00  0.00    +0.000 C 
ATOM      4  C   UNL     1     -44.370 -16.198 -26.001  0.00  0.00    +0.000 C 
ATOM      5  C   UNL     1     -45.174 -15.022 -25.473  0.00  0.00    +0.000 C 
ATOM      6  N   UNL     1     -45.128 -17.383 -25.650  0.00  0.00    +0.000 N 
ATOM      7  O   UNL     1     -45.498 -19.682 -25.806  0.00  0.00    +0.000 OA
ENDROOT
BRANCH   5   8
ATOM      8  C   UNL     1     -45.757 -14.247 -26.610  0.00  0.00    +0.000 A 
ATOM      9  C   UNL     1     -46.142 -13.444 -28.491  0.00  0.00    +0.000 A 
ATOM     10  C   UNL     1     -46.084 -13.135 -29.942  0.00  0.00    +0.000 C 
ATOM     11  N   UNL     1     -45.296 -14.292 -27.877  0.00  0.00    +0.000 NA
ATOM     12  N   UNL     1     -47.057 -12.917 -27.653  0.00  0.00    +0.000 NA
ATOM     13  O   UNL     1     -46.782 -13.440 -26.496  0.00  0.00    +0.000 OA
ENDBRANCH   5   8
BRANCH   1  15
ATOM     14  C   UNL     1     -46.149 -13.809 -21.168  0.00  0.00    +0.000 C 
ATOM     15  C   UNL     1     -46.017 -15.340 -23.165  0.00  0.00    +0.000 C 
ATOM     16  N   UNL     1     -46.382 -14.090 -22.574  0.00  0.00    +0.000 NA
ATOM     17  O   UNL     1     -45.477 -16.239 -22.468  0.00  0.00    +0.000 OA
ENDBRANCH   1  15
BRANCH   3  18
ATOM     18  C   UNL     1     -43.350 -18.964 -26.552  0.00  0.00    +0.000 C 
BRANCH  18  19
ATOM     19  C   UNL     1     -42.524 -19.835 -25.614  0.00  0.00    +0.000 C 
BRANCH  19  20
ATOM     20  C   UNL     1     -42.695 -19.461 -24.174  0.00  0.00    +0.000 A 
ATOM     21  C   UNL     1     -43.174 -20.306 -23.190  0.00  0.00    +0.000 A 
ATOM     22  C   UNL     1     -43.146 -19.483 -22.082  0.00  0.00    +0.000 A 
ATOM     23  N   UNL     1     -42.681 -18.258 -22.391  0.00  0.00    +0.000 NA
ATOM     24  O   UNL     1     -42.420 -18.283 -23.662  0.00  0.00    +0.000 OA
BRANCH  22  26
ATOM     25  C   UNL     1     -42.735 -19.650 -19.665  0.00  0.00    +0.000 C 
ATOM     26  O   UNL     1     -43.552 -19.869 -20.806  0.00  0.00    +0.000 OA
ENDBRANCH  22  26
ENDBRANCH  19  20
ENDBRANCH  18  19
ENDBRANCH   3  18
TORSDOF 6
ENDMDL
MODEL 2
REMARK VINA RESULT:      -6.1     16.638     20.861
REMARK  Name = ZINC000169781247 ChemDiv-S640-0707 MolPort-044-356-519 PubChem-91923255
REMARK  6 active torsions:
REMARK  status: ('A' for Active; 'I' for Inactive)
REMARK    1  A    between atoms: C_2  and  C_3
REMARK    2  A    between atoms: C_5  and  C_6
REMARK    3  A    between atoms: C_6  and  C_7
REMARK    4  A    between atoms: C_7  and  C_8
REMARK    5  A    between atoms: C_10  and  O_24
REMARK    6  A    between atoms: C_13  and  C_14
REMARK                            x       y       z     vdW  Elec       q    Type
REMARK                         _______ _______ _______ _____ _____    ______ ____
ROOT
ATOM      1  C   UNL     1     -37.263   1.942 -33.440  0.00  0.00    +0.000 C 
ATOM      2  C   UNL     1     -38.062   1.337 -32.295  0.00  0.00    +0.000 C 
ATOM      3  C   UNL     1     -40.304   0.172 -32.150  0.00  0.00    +0.000 C 
ATOM      4  C   UNL     1     -39.471   1.291 -34.268  0.00  0.00    +0.000 C 
ATOM      5  C   UNL     1     -38.224   2.084 -34.620  0.00  0.00    +0.000 C 
ATOM      6  N   UNL     1     -39.321   0.919 -32.875  0.00  0.00    +0.000 N 
ATOM      7  O   UNL     1     -40.193   0.027 -30.903  0.00  0.00    +0.000 OA
ENDROOT
BRANCH   5   8
ATOM      8  C   UNL     1     -38.571   3.523 -34.827  0.00  0.00    +0.000 A 
ATOM      9  C   UNL     1     -39.279   5.314 -35.615  0.00  0.00    +0.000 A 
ATOM     10  C   UNL     1     -39.920   6.322 -36.497  0.00  0.00    +0.000 C 
ATOM     11  N   UNL     1     -39.208   4.003 -35.914  0.00  0.00    +0.000 NA
ATOM     12  N   UNL     1     -38.723   5.611 -34.425  0.00  0.00    +0.000 NA
ATOM     13  O   UNL     1     -38.295   4.473 -33.969  0.00  0.00    +0.000 OA
ENDBRANCH   5   8
BRANCH   1  15
ATOM     14  C   UNL     1     -34.777  -1.043 -33.429  0.00  0.00    +0.000 C 
ATOM     15  C   UNL     1     -36.121   1.054 -33.812  0.00  0.00    +0.000 C 
ATOM     16  N   UNL     1     -35.864  -0.146 -33.078  0.00  0.00    +0.000 NA
ATOM     17  O   UNL     1     -35.398   1.364 -34.796  0.00  0.00    +0.000 OA
ENDBRANCH   1  15
BRANCH   3  18
ATOM     18  C   UNL     1     -41.463  -0.455 -32.863  0.00  0.00    +0.000 C 
BRANCH  18  19
ATOM     19  C   UNL     1     -42.781  -0.095 -32.189  0.00  0.00    +0.000 C 
BRANCH  19  20
ATOM     20  C   UNL     1     -43.894  -1.028 -32.557  0.00  0.00    +0.000 A 
ATOM     21  C   UNL     1     -44.721  -1.667 -31.652  0.00  0.00    +0.000 A 
ATOM     22  C   UNL     1     -45.537  -2.398 -32.493  0.00  0.00    +0.000 A 
ATOM     23  N   UNL     1     -45.218  -2.196 -33.785  0.00  0.00    +0.000 NA
ATOM     24  O   UNL     1     -44.222  -1.363 -33.784  0.00  0.00    +0.000 OA
BRANCH  22  26
ATOM     25  C   UNL     1     -47.240  -4.109 -32.953  0.00  0.00    +0.000 C 
ATOM     26  O   UNL     1     -46.559  -3.240 -32.058  0.00  0.00    +0.000 OA
ENDBRANCH  22  26
ENDBRANCH  19  20
ENDBRANCH  18  19
ENDBRANCH   3  18
TORSDOF 6
ENDMDL
MODEL 3
REMARK VINA RESULT:      -6.0      3.065      4.884
REMARK  Name = ZINC000169781247 ChemDiv-S640-0707 MolPort-044-356-519 PubChem-91923255
REMARK  6 active torsions:
REMARK  status: ('A' for Active; 'I' for Inactive)
REMARK    1  A    between atoms: C_2  and  C_3
REMARK    2  A    between atoms: C_5  and  C_6
REMARK    3  A    between atoms: C_6  and  C_7
REMARK    4  A    between atoms: C_7  and  C_8
REMARK    5  A    between atoms: C_10  and  O_24
REMARK    6  A    between atoms: C_13  and  C_14
REMARK                            x       y       z     vdW  Elec       q    Type
REMARK                         _______ _______ _______ _____ _____    ______ ____
ROOT
ATOM      1  C   UNL     1     -46.164 -15.771 -24.848  0.00  0.00    +0.000 C 
ATOM      2  C   UNL     1     -45.962 -17.218 -25.273  0.00  0.00    +0.000 C 
ATOM      3  C   UNL     1     -44.110 -18.441 -26.490  0.00  0.00    +0.000 C 
ATOM      4  C   UNL     1     -44.156 -15.918 -26.239  0.00  0.00    +0.000 C 
ATOM      5  C   UNL     1     -45.138 -14.939 -25.618  0.00  0.00    +0.000 C 
ATOM      6  N   UNL     1     -44.727 -17.234 -26.030  0.00  0.00    +0.000 N 
ATOM      7  O   UNL     1     -44.736 -19.534 -26.427  0.00  0.00    +0.000 OA
ENDROOT
BRANCH   5   8
ATOM      8  C   UNL     1     -45.819 -14.147 -26.687  0.00  0.00    +0.000 A 
ATOM      9  C   UNL     1     -46.362 -13.306 -28.511  0.00  0.00    +0.000 A 
ATOM     10  C   UNL     1     -46.420 -12.961 -29.955  0.00  0.00    +0.000 C 
ATOM     11  N   UNL     1     -45.456 -14.153 -27.985  0.00  0.00    +0.000 NA
ATOM     12  N   UNL     1     -47.219 -12.818 -27.593  0.00  0.00    +0.000 NA
ATOM     13  O   UNL     1     -46.847 -13.364 -26.475  0.00  0.00    +0.000 OA
ENDBRANCH   5   8
BRANCH   1  15
ATOM     14  C   UNL     1     -44.914 -16.435 -21.231  0.00  0.00    +0.000 C 
ATOM     15  C   UNL     1     -45.949 -15.618 -23.378  0.00  0.00    +0.000 C 
ATOM     16  N   UNL     1     -45.162 -16.567 -22.656  0.00  0.00    +0.000 NA
ATOM     17  O   UNL     1     -46.454 -14.629 -22.784  0.00  0.00    +0.000 OA
ENDBRANCH   1  15
BRANCH   3  18
ATOM     18  C   UNL     1     -42.716 -18.423 -27.036  0.00  0.00    +0.000 C 
BRANCH  18  19
ATOM     19  C   UNL     1     -42.321 -19.792 -27.577  0.00  0.00    +0.000 C 
BRANCH  19  20
ATOM     20  C   UNL     1     -42.369 -19.862 -29.072  0.00  0.00    +0.000 A 
ATOM     21  C   UNL     1     -42.230 -21.020 -29.814  0.00  0.00    +0.000 A 
ATOM     22  C   UNL     1     -42.335 -20.536 -31.103  0.00  0.00    +0.000 A 
ATOM     23  N   UNL     1     -42.529 -19.204 -31.114  0.00  0.00    +0.000 NA
ATOM     24  O   UNL     1     -42.543 -18.833 -29.870  0.00  0.00    +0.000 OA
BRANCH  22  26
ATOM     25  C   UNL     1     -43.160 -21.176 -33.328  0.00  0.00    +0.000 C 
ATOM     26  O   UNL     1     -42.249 -21.326 -32.248  0.00  0.00    +0.000 OA
ENDBRANCH  22  26
ENDBRANCH  19  20
ENDBRANCH  18  19
ENDBRANCH   3  18
TORSDOF 6
ENDMDL
