MODEL 1
REMARK VINA RESULT:      -6.1      0.000      0.000
REMARK  Name = ZINC000011118389 ZINC11118389 PubChem-41826645
REMARK  6 active torsions:
REMARK  status: ('A' for Active; 'I' for Inactive)
REMARK    1  A    between atoms: C_2  and  C_3
REMARK    2  A    between atoms: C_15  and  C_16
REMARK    3  A    between atoms: C_15  and  N_26
REMARK    4  A    between atoms: C_17  and  C_19
REMARK    5  A    between atoms: C_17  and  N_27
REMARK    6  A    between atoms: C_19  and  O_25
REMARK                            x       y       z     vdW  Elec       q    Type
REMARK                         _______ _______ _______ _____ _____    ______ ____
ROOT
ATOM      1  C   UNL     1     -47.131  -4.191 -25.345  0.00  0.00    +0.000 A 
ATOM      2  C   UNL     1     -46.766  -5.300 -24.587  0.00  0.00    +0.000 A 
ATOM      3  C   UNL     1     -46.393  -6.482 -25.221  0.00  0.00    +0.000 A 
ATOM      4  C   UNL     1     -46.371  -6.584 -26.624  0.00  0.00    +0.000 A 
ATOM      5  C   UNL     1     -46.737  -5.451 -27.405  0.00  0.00    +0.000 A 
ATOM      6  C   UNL     1     -47.108  -4.268 -26.739  0.00  0.00    +0.000 A 
ATOM      7  C   UNL     1     -46.732  -5.444 -28.901  0.00  0.00    +0.000 A 
ATOM      8  C   UNL     1     -46.922  -4.229 -29.586  0.00  0.00    +0.000 A 
ATOM      9  C   UNL     1     -46.933  -4.180 -30.982  0.00  0.00    +0.000 A 
ATOM     10  C   UNL     1     -46.755  -5.349 -31.720  0.00  0.00    +0.000 A 
ATOM     11  C   UNL     1     -46.568  -6.565 -31.062  0.00  0.00    +0.000 A 
ATOM     12  C   UNL     1     -46.555  -6.616 -29.663  0.00  0.00    +0.000 A 
ATOM     13  S   UNL     1     -46.324  -8.152 -28.880  0.00  0.00    +0.000 S 
ATOM     14  O   UNL     1     -47.571  -8.982 -28.986  0.00  0.00    +0.000 OA
ATOM     15  O   UNL     1     -45.165  -8.870 -29.514  0.00  0.00    +0.000 OA
ATOM     16  N   UNL     1     -45.972  -7.832 -27.224  0.00  0.00    +0.000 N 
ENDROOT
BRANCH   1  18
ATOM     17  C   UNL     1     -47.429  -1.750 -25.623  0.00  0.00    +0.000 C 
ATOM     18  C   UNL     1     -47.511  -2.922 -24.661  0.00  0.00    +0.000 C 
ENDBRANCH   1  18
BRANCH  16  19
ATOM     19  C   UNL     1     -45.358  -8.901 -26.442  0.00  0.00    +0.000 C 
BRANCH  19  20
ATOM     20  C   UNL     1     -46.248 -10.097 -26.413  0.00  0.00    +0.000 C 
ATOM     21  O   UNL     1     -47.371 -10.023 -25.847  0.00  0.00    +0.000 OA
ATOM     22  N   UNL     1     -45.819 -11.316 -27.024  0.00  0.00    +0.000 NA
BRANCH  22  23
ATOM     23  C   UNL     1     -46.605 -12.539 -26.978  0.00  0.00    +0.000 C 
ATOM     24  C   UNL     1     -46.034 -13.478 -25.933  0.00  0.00    +0.000 C 
BRANCH  23  25
ATOM     25  C   UNL     1     -46.563 -13.223 -28.332  0.00  0.00    +0.000 C 
BRANCH  25  27
ATOM     26  C   UNL     1     -46.098 -12.541 -30.377  0.00  0.00    +0.000 C 
ATOM     27  O   UNL     1     -45.539 -12.679 -29.108  0.00  0.00    +0.000 OA
ENDBRANCH  25  27
ENDBRANCH  23  25
ENDBRANCH  22  23
ENDBRANCH  19  20
ENDBRANCH  16  19
TORSDOF 6
ENDMDL
MODEL 2
REMARK VINA RESULT:      -6.0      4.310      6.799
REMARK  Name = ZINC000011118389 ZINC11118389 PubChem-41826645
REMARK  6 active torsions:
REMARK  status: ('A' for Active; 'I' for Inactive)
REMARK    1  A    between atoms: C_2  and  C_3
REMARK    2  A    between atoms: C_15  and  C_16
REMARK    3  A    between atoms: C_15  and  N_26
REMARK    4  A    between atoms: C_17  and  C_19
REMARK    5  A    between atoms: C_17  and  N_27
REMARK    6  A    between atoms: C_19  and  O_25
REMARK                            x       y       z     vdW  Elec       q    Type
REMARK                         _______ _______ _______ _____ _____    ______ ____
ROOT
ATOM      1  C   UNL     1     -43.317  -1.235 -32.336  0.00  0.00    +0.000 A 
ATOM      2  C   UNL     1     -44.530  -1.066 -31.673  0.00  0.00    +0.000 A 
ATOM      3  C   UNL     1     -45.490  -2.075 -31.714  0.00  0.00    +0.000 A 
ATOM      4  C   UNL     1     -45.261  -3.274 -32.413  0.00  0.00    +0.000 A 
ATOM      5  C   UNL     1     -44.020  -3.455 -33.088  0.00  0.00    +0.000 A 
ATOM      6  C   UNL     1     -43.066  -2.422 -33.028  0.00  0.00    +0.000 A 
ATOM      7  C   UNL     1     -43.665  -4.696 -33.844  0.00  0.00    +0.000 A 
ATOM      8  C   UNL     1     -42.350  -4.865 -34.316  0.00  0.00    +0.000 A 
ATOM      9  C   UNL     1     -41.980  -6.004 -35.033  0.00  0.00    +0.000 A 
ATOM     10  C   UNL     1     -42.922  -6.997 -35.295  0.00  0.00    +0.000 A 
ATOM     11  C   UNL     1     -44.232  -6.850 -34.840  0.00  0.00    +0.000 A 
ATOM     12  C   UNL     1     -44.605  -5.710 -34.118  0.00  0.00    +0.000 A 
ATOM     13  S   UNL     1     -46.250  -5.561 -33.572  0.00  0.00    +0.000 S 
ATOM     14  O   UNL     1     -47.153  -5.233 -34.727  0.00  0.00    +0.000 OA
ATOM     15  O   UNL     1     -46.682  -6.845 -32.922  0.00  0.00    +0.000 OA
ATOM     16  N   UNL     1     -46.289  -4.284 -32.417  0.00  0.00    +0.000 N 
ENDROOT
BRANCH   1  18
ATOM     17  C   UNL     1     -40.921  -0.705 -32.654  0.00  0.00    +0.000 C 
ATOM     18  C   UNL     1     -42.286  -0.160 -32.273  0.00  0.00    +0.000 C 
ENDBRANCH   1  18
BRANCH  16  19
ATOM     19  C   UNL     1     -47.443  -4.210 -31.526  0.00  0.00    +0.000 C 
BRANCH  19  20
ATOM     20  C   UNL     1     -47.037  -4.517 -30.125  0.00  0.00    +0.000 C 
ATOM     21  O   UNL     1     -47.454  -3.792 -29.183  0.00  0.00    +0.000 OA
ATOM     22  N   UNL     1     -46.174  -5.626 -29.864  0.00  0.00    +0.000 NA
BRANCH  22  23
ATOM     23  C   UNL     1     -45.684  -5.947 -28.531  0.00  0.00    +0.000 C 
ATOM     24  C   UNL     1     -44.210  -6.294 -28.596  0.00  0.00    +0.000 C 
BRANCH  23  25
ATOM     25  C   UNL     1     -46.448  -7.136 -27.980  0.00  0.00    +0.000 C 
BRANCH  25  27
ATOM     26  C   UNL     1     -46.865  -9.115 -28.860  0.00  0.00    +0.000 C 
ATOM     27  O   UNL     1     -47.160  -7.761 -29.004  0.00  0.00    +0.000 OA
ENDBRANCH  25  27
ENDBRANCH  23  25
ENDBRANCH  22  23
ENDBRANCH  19  20
ENDBRANCH  16  19
TORSDOF 6
ENDMDL
MODEL 3
REMARK VINA RESULT:      -6.0      8.413     12.239
REMARK  Name = ZINC000011118389 ZINC11118389 PubChem-41826645
REMARK  6 active torsions:
REMARK  status: ('A' for Active; 'I' for Inactive)
REMARK    1  A    between atoms: C_2  and  C_3
REMARK    2  A    between atoms: C_15  and  C_16
REMARK    3  A    between atoms: C_15  and  N_26
REMARK    4  A    between atoms: C_17  and  C_19
REMARK    5  A    between atoms: C_17  and  N_27
REMARK    6  A    between atoms: C_19  and  O_25
REMARK                            x       y       z     vdW  Elec       q    Type
REMARK                         _______ _______ _______ _____ _____    ______ ____
ROOT
ATOM      1  C   UNL     1     -45.671 -14.163 -24.624  0.00  0.00    +0.000 A 
ATOM      2  C   UNL     1     -45.144 -15.298 -25.234  0.00  0.00    +0.000 A 
ATOM      3  C   UNL     1     -44.956 -16.462 -24.492  0.00  0.00    +0.000 A 
ATOM      4  C   UNL     1     -45.292 -16.521 -23.128  0.00  0.00    +0.000 A 
ATOM      5  C   UNL     1     -45.838 -15.365 -22.499  0.00  0.00    +0.000 A 
ATOM      6  C   UNL     1     -46.020 -14.204 -23.272  0.00  0.00    +0.000 A 
ATOM      7  C   UNL     1     -46.247 -15.324 -21.061  0.00  0.00    +0.000 A 
ATOM      8  C   UNL     1     -46.950 -14.205 -20.576  0.00  0.00    +0.000 A 
ATOM      9  C   UNL     1     -47.343 -14.123 -19.238  0.00  0.00    +0.000 A 
ATOM     10  C   UNL     1     -47.035 -15.159 -18.358  0.00  0.00    +0.000 A 
ATOM     11  C   UNL     1     -46.336 -16.276 -18.817  0.00  0.00    +0.000 A 
ATOM     12  C   UNL     1     -45.943 -16.362 -20.157  0.00  0.00    +0.000 A 
ATOM     13  S   UNL     1     -45.068 -17.768 -20.689  0.00  0.00    +0.000 S 
ATOM     14  O   UNL     1     -43.653 -17.720 -20.187  0.00  0.00    +0.000 OA
ATOM     15  O   UNL     1     -45.757 -19.007 -20.189  0.00  0.00    +0.000 OA
ATOM     16  N   UNL     1     -45.080 -17.753 -22.412  0.00  0.00    +0.000 N 
ENDROOT
BRANCH   1  18
ATOM     17  C   UNL     1     -46.249 -13.276 -26.860  0.00  0.00    +0.000 C 
ATOM     18  C   UNL     1     -45.888 -12.927 -25.428  0.00  0.00    +0.000 C 
ENDBRANCH   1  18
BRANCH  16  19
ATOM     19  C   UNL     1     -44.765 -19.000 -23.103  0.00  0.00    +0.000 C 
BRANCH  19  20
ATOM     20  C   UNL     1     -43.330 -19.354 -22.904  0.00  0.00    +0.000 C 
ATOM     21  O   UNL     1     -42.439 -18.699 -23.507  0.00  0.00    +0.000 OA
ATOM     22  N   UNL     1     -42.979 -20.433 -22.035  0.00  0.00    +0.000 NA
BRANCH  22  23
ATOM     23  C   UNL     1     -41.606 -20.875 -21.843  0.00  0.00    +0.000 C 
ATOM     24  C   UNL     1     -41.418 -22.247 -22.461  0.00  0.00    +0.000 C 
BRANCH  23  25
ATOM     25  C   UNL     1     -41.299 -20.956 -20.359  0.00  0.00    +0.000 C 
BRANCH  25  27
ATOM     26  C   UNL     1     -42.128 -21.250 -18.337  0.00  0.00    +0.000 C 
ATOM     27  O   UNL     1     -42.478 -20.843 -19.623  0.00  0.00    +0.000 OA
ENDBRANCH  25  27
ENDBRANCH  23  25
ENDBRANCH  22  23
ENDBRANCH  19  20
ENDBRANCH  16  19
TORSDOF 6
ENDMDL
