MODEL 1
REMARK VINA RESULT:      -5.9      0.000      0.000
REMARK  Name = ZINC000020144670 PubChem-28676995
REMARK  6 active torsions:
REMARK  status: ('A' for Active; 'I' for Inactive)
REMARK    1  A    between atoms: C_2  and  C_3
REMARK    2  A    between atoms: C_2  and  O_22
REMARK    3  A    between atoms: C_4  and  N_23
REMARK    4  A    between atoms: C_5  and  O_21
REMARK    5  A    between atoms: C_8  and  C_10
REMARK    6  A    between atoms: C_12  and  O_22
REMARK                            x       y       z     vdW  Elec       q    Type
REMARK                         _______ _______ _______ _____ _____    ______ ____
ROOT
ATOM      1  C   UNL     1     -43.837 -19.473 -23.118  0.00  0.00    +0.000 C 
ATOM      2  O   UNL     1     -43.006 -20.362 -23.441  0.00  0.00    +0.000 OA
ATOM      3  N   UNL     1     -43.923 -19.095 -21.732  0.00  0.00    +0.000 NA
ENDROOT
BRANCH   3   4
ATOM      4  C   UNL     1     -44.794 -18.173 -21.054  0.00  0.00    +0.000 A 
ATOM      5  C   UNL     1     -45.485 -18.612 -19.911  0.00  0.00    +0.000 A 
ATOM      6  C   UNL     1     -46.349 -17.730 -19.239  0.00  0.00    +0.000 A 
ATOM      7  C   UNL     1     -46.524 -16.424 -19.697  0.00  0.00    +0.000 A 
ATOM      8  C   UNL     1     -45.839 -15.979 -20.834  0.00  0.00    +0.000 A 
ATOM      9  C   UNL     1     -44.981 -16.859 -21.501  0.00  0.00    +0.000 A 
BRANCH   8  10
ATOM     10  C   UNL     1     -46.014 -14.604 -21.326  0.00  0.00    +0.000 C 
ATOM     11  O   UNL     1     -47.119 -14.013 -21.192  0.00  0.00    +0.000 OA
ATOM     12  O   UNL     1     -44.959 -13.943 -21.945  0.00  0.00    +0.000 OA
ENDBRANCH   8  10
BRANCH   5  14
ATOM     13  C   UNL     1     -44.586 -20.241 -18.275  0.00  0.00    +0.000 C 
ATOM     14  O   UNL     1     -45.302 -19.924 -19.462  0.00  0.00    +0.000 OA
ENDBRANCH   5  14
ENDBRANCH   3   4
BRANCH   1  16
ATOM     15  C   UNL     1     -45.201 -19.934 -25.167  0.00  0.00    +0.000 C 
ATOM     16  C   UNL     1     -44.673 -18.881 -24.211  0.00  0.00    +0.000 C 
BRANCH  16  17
ATOM     17  O   UNL     1     -43.972 -17.857 -24.905  0.00  0.00    +0.000 OA
BRANCH  17  18
ATOM     18  C   UNL     1     -44.598 -16.715 -25.415  0.00  0.00    +0.000 A 
ATOM     19  C   UNL     1     -44.148 -16.164 -26.625  0.00  0.00    +0.000 A 
ATOM     20  C   UNL     1     -44.765 -15.023 -27.148  0.00  0.00    +0.000 A 
ATOM     21  C   UNL     1     -45.831 -14.427 -26.469  0.00  0.00    +0.000 A 
ATOM     22  C   UNL     1     -46.283 -14.970 -25.265  0.00  0.00    +0.000 A 
ATOM     23  C   UNL     1     -45.670 -16.110 -24.739  0.00  0.00    +0.000 A 
ATOM     24 CL   UNL     1     -46.598 -13.000 -27.130  0.00  0.00    +0.000 Cl
ATOM     25 CL   UNL     1     -42.808 -16.885 -27.498  0.00  0.00    +0.000 Cl
ENDBRANCH  17  18
ENDBRANCH  16  17
ENDBRANCH   1  16
TORSDOF 6
ENDMDL
MODEL 2
REMARK VINA RESULT:      -5.8      3.178      5.774
REMARK  Name = ZINC000020144670 PubChem-28676995
REMARK  6 active torsions:
REMARK  status: ('A' for Active; 'I' for Inactive)
REMARK    1  A    between atoms: C_2  and  C_3
REMARK    2  A    between atoms: C_2  and  O_22
REMARK    3  A    between atoms: C_4  and  N_23
REMARK    4  A    between atoms: C_5  and  O_21
REMARK    5  A    between atoms: C_8  and  C_10
REMARK    6  A    between atoms: C_12  and  O_22
REMARK                            x       y       z     vdW  Elec       q    Type
REMARK                         _______ _______ _______ _____ _____    ______ ____
ROOT
ATOM      1  C   UNL     1     -45.333 -18.866 -24.869  0.00  0.00    +0.000 C 
ATOM      2  O   UNL     1     -45.857 -19.983 -25.117  0.00  0.00    +0.000 OA
ATOM      3  N   UNL     1     -45.455 -17.824 -25.855  0.00  0.00    +0.000 NA
ENDROOT
BRANCH   3   4
ATOM      4  C   UNL     1     -44.928 -16.487 -25.890  0.00  0.00    +0.000 A 
ATOM      5  C   UNL     1     -43.614 -16.291 -26.350  0.00  0.00    +0.000 A 
ATOM      6  C   UNL     1     -43.074 -14.994 -26.384  0.00  0.00    +0.000 A 
ATOM      7  C   UNL     1     -43.833 -13.901 -25.964  0.00  0.00    +0.000 A 
ATOM      8  C   UNL     1     -45.142 -14.087 -25.506  0.00  0.00    +0.000 A 
ATOM      9  C   UNL     1     -45.676 -15.379 -25.473  0.00  0.00    +0.000 A 
BRANCH   8  10
ATOM     10  C   UNL     1     -45.952 -12.942 -25.063  0.00  0.00    +0.000 C 
ATOM     11  O   UNL     1     -45.994 -12.622 -23.845  0.00  0.00    +0.000 OA
ATOM     12  O   UNL     1     -46.681 -12.202 -25.987  0.00  0.00    +0.000 OA
ENDBRANCH   8  10
BRANCH   5  14
ATOM     13  C   UNL     1     -41.759 -17.901 -26.025  0.00  0.00    +0.000 C 
ATOM     14  O   UNL     1     -42.862 -17.396 -26.766  0.00  0.00    +0.000 OA
ENDBRANCH   5  14
ENDBRANCH   3   4
BRANCH   1  16
ATOM     15  C   UNL     1     -43.558 -19.781 -23.357  0.00  0.00    +0.000 C 
ATOM     16  C   UNL     1     -44.618 -18.715 -23.561  0.00  0.00    +0.000 C 
BRANCH  16  17
ATOM     17  O   UNL     1     -45.531 -18.677 -22.471  0.00  0.00    +0.000 OA
BRANCH  17  18
ATOM     18  C   UNL     1     -45.646 -17.580 -21.611  0.00  0.00    +0.000 A 
ATOM     19  C   UNL     1     -46.054 -17.784 -20.283  0.00  0.00    +0.000 A 
ATOM     20  C   UNL     1     -46.173 -16.698 -19.411  0.00  0.00    +0.000 A 
ATOM     21  C   UNL     1     -45.886 -15.405 -19.856  0.00  0.00    +0.000 A 
ATOM     22  C   UNL     1     -45.480 -15.195 -21.176  0.00  0.00    +0.000 A 
ATOM     23  C   UNL     1     -45.360 -16.277 -22.050  0.00  0.00    +0.000 A 
ATOM     24 CL   UNL     1     -46.036 -14.050 -18.759  0.00  0.00    +0.000 Cl
ATOM     25 CL   UNL     1     -46.428 -19.395 -19.695  0.00  0.00    +0.000 Cl
ENDBRANCH  17  18
ENDBRANCH  16  17
ENDBRANCH   1  16
TORSDOF 6
ENDMDL
MODEL 3
REMARK VINA RESULT:      -5.8     13.564     17.301
REMARK  Name = ZINC000020144670 PubChem-28676995
REMARK  6 active torsions:
REMARK  status: ('A' for Active; 'I' for Inactive)
REMARK    1  A    between atoms: C_2  and  C_3
REMARK    2  A    between atoms: C_2  and  O_22
REMARK    3  A    between atoms: C_4  and  N_23
REMARK    4  A    between atoms: C_5  and  O_21
REMARK    5  A    between atoms: C_8  and  C_10
REMARK    6  A    between atoms: C_12  and  O_22
REMARK                            x       y       z     vdW  Elec       q    Type
REMARK                         _______ _______ _______ _____ _____    ______ ____
ROOT
ATOM      1  C   UNL     1     -45.896  -2.631 -33.214  0.00  0.00    +0.000 C 
ATOM      2  O   UNL     1     -47.014  -2.619 -33.792  0.00  0.00    +0.000 OA
ATOM      3  N   UNL     1     -44.722  -2.349 -33.998  0.00  0.00    +0.000 NA
ENDROOT
BRANCH   3   4
ATOM      4  C   UNL     1     -43.328  -2.344 -33.647  0.00  0.00    +0.000 A 
ATOM      5  C   UNL     1     -42.608  -3.549 -33.722  0.00  0.00    +0.000 A 
ATOM      6  C   UNL     1     -41.246  -3.570 -33.374  0.00  0.00    +0.000 A 
ATOM      7  C   UNL     1     -40.606  -2.403 -32.955  0.00  0.00    +0.000 A 
ATOM      8  C   UNL     1     -41.315  -1.199 -32.878  0.00  0.00    +0.000 A 
ATOM      9  C   UNL     1     -42.669  -1.182 -33.224  0.00  0.00    +0.000 A 
BRANCH   8  10
ATOM     10  C   UNL     1     -40.650   0.037 -32.440  0.00  0.00    +0.000 C 
ATOM     11  O   UNL     1     -40.744   0.425 -31.244  0.00  0.00    +0.000 OA
ATOM     12  O   UNL     1     -39.910   0.792 -33.343  0.00  0.00    +0.000 OA
ENDBRANCH   8  10
BRANCH   5  14
ATOM     13  C   UNL     1     -42.721  -5.591 -35.119  0.00  0.00    +0.000 C 
ATOM     14  O   UNL     1     -43.262  -4.713 -34.142  0.00  0.00    +0.000 OA
ENDBRANCH   5  14
ENDBRANCH   3   4
BRANCH   1  16
ATOM     15  C   UNL     1     -45.344  -1.791 -30.919  0.00  0.00    +0.000 C 
ATOM     16  C   UNL     1     -45.882  -2.942 -31.748  0.00  0.00    +0.000 C 
BRANCH  16  17
ATOM     17  O   UNL     1     -45.175  -4.147 -31.481  0.00  0.00    +0.000 OA
BRANCH  17  18
ATOM     18  C   UNL     1     -45.748  -5.235 -30.813  0.00  0.00    +0.000 A 
ATOM     19  C   UNL     1     -46.319  -6.279 -31.557  0.00  0.00    +0.000 A 
ATOM     20  C   UNL     1     -46.894  -7.373 -30.903  0.00  0.00    +0.000 A 
ATOM     21  C   UNL     1     -46.904  -7.432 -29.507  0.00  0.00    +0.000 A 
ATOM     22  C   UNL     1     -46.337  -6.396 -28.761  0.00  0.00    +0.000 A 
ATOM     23  C   UNL     1     -45.761  -5.301 -29.410  0.00  0.00    +0.000 A 
ATOM     24 CL   UNL     1     -47.625  -8.804 -28.695  0.00  0.00    +0.000 Cl
ATOM     25 CL   UNL     1     -46.329  -6.232 -33.311  0.00  0.00    +0.000 Cl
ENDBRANCH  17  18
ENDBRANCH  16  17
ENDBRANCH   1  16
TORSDOF 6
ENDMDL
