MODEL 1
REMARK VINA RESULT:      -5.9      0.000      0.000
REMARK  Name = ZINC000072241409 ZINC72241409 PubChem-95739679
REMARK  2 active torsions:
REMARK  status: ('A' for Active; 'I' for Inactive)
REMARK    1  A    between atoms: C_5  and  C_6
REMARK    2  A    between atoms: C_7  and  C_11
REMARK                            x       y       z     vdW  Elec       q    Type
REMARK                         _______ _______ _______ _____ _____    ______ ____
ROOT
ATOM      1  C   UNL     1     -44.490 -16.182 -23.861  0.00  0.00    +0.000 C 
ATOM      2  C   UNL     1     -45.090 -17.598 -23.763  0.00  0.00    +0.000 C 
ATOM      3  C   UNL     1     -43.490 -18.085 -25.643  0.00  0.00    +0.000 C 
ATOM      4  C   UNL     1     -42.977 -16.684 -25.544  0.00  0.00    +0.000 C 
ATOM      5  C   UNL     1     -45.257 -19.759 -25.051  0.00  0.00    +0.000 C 
ATOM      6  N   UNL     1     -44.598 -18.480 -24.826  0.00  0.00    +0.000 N 
ATOM      7  O   UNL     1     -42.987 -18.879 -26.482  0.00  0.00    +0.000 OA
ATOM      8  O   UNL     1     -43.122 -16.184 -24.231  0.00  0.00    +0.000 OA
ENDROOT
BRANCH   1  13
ATOM      9  C   UNL     1     -46.582  -9.526 -26.530  0.00  0.00    +0.000 C 
ATOM     10  C   UNL     1     -46.421 -10.962 -26.176  0.00  0.00    +0.000 A 
ATOM     11  C   UNL     1     -45.435 -11.478 -25.357  0.00  0.00    +0.000 A 
ATOM     12  C   UNL     1     -45.750 -12.824 -25.372  0.00  0.00    +0.000 A 
ATOM     13  C   UNL     1     -45.326 -15.225 -24.661  0.00  0.00    +0.000 C 
ATOM     14  N   UNL     1     -46.829 -13.070 -26.137  0.00  0.00    +0.000 NA
ATOM     15  N   UNL     1     -45.016 -13.825 -24.663  0.00  0.00    +0.000 NA
ATOM     16  O   UNL     1     -47.207 -11.919 -26.606  0.00  0.00    +0.000 OA
ATOM     17  O   UNL     1     -46.316 -15.667 -25.302  0.00  0.00    +0.000 OA
ENDBRANCH   1  13
BRANCH   2  18
ATOM     18  C   UNL     1     -44.822 -18.191 -22.414  0.00  0.00    +0.000 A 
ATOM     19  C   UNL     1     -45.842 -18.199 -21.456  0.00  0.00    +0.000 A 
ATOM     20  C   UNL     1     -45.616 -18.753 -20.193  0.00  0.00    +0.000 A 
ATOM     21  C   UNL     1     -44.370 -19.304 -19.883  0.00  0.00    +0.000 A 
ATOM     22  C   UNL     1     -43.347 -19.303 -20.837  0.00  0.00    +0.000 A 
ATOM     23  C   UNL     1     -43.572 -18.748 -22.100  0.00  0.00    +0.000 A 
ATOM     24 CL   UNL     1     -44.088 -19.998 -18.301  0.00  0.00    +0.000 Cl
ENDBRANCH   2  18
TORSDOF 2
ENDMDL
MODEL 2
REMARK VINA RESULT:      -5.9      9.688     15.276
REMARK  Name = ZINC000072241409 ZINC72241409 PubChem-95739679
REMARK  2 active torsions:
REMARK  status: ('A' for Active; 'I' for Inactive)
REMARK    1  A    between atoms: C_5  and  C_6
REMARK    2  A    between atoms: C_7  and  C_11
REMARK                            x       y       z     vdW  Elec       q    Type
REMARK                         _______ _______ _______ _____ _____    ______ ____
ROOT
ATOM      1  C   UNL     1     -45.594  -3.801 -30.792  0.00  0.00    +0.000 C 
ATOM      2  C   UNL     1     -44.544  -4.225 -31.837  0.00  0.00    +0.000 C 
ATOM      3  C   UNL     1     -46.561  -4.502 -33.316  0.00  0.00    +0.000 C 
ATOM      4  C   UNL     1     -47.422  -3.997 -32.204  0.00  0.00    +0.000 C 
ATOM      5  C   UNL     1     -44.341  -5.391 -34.063  0.00  0.00    +0.000 C 
ATOM      6  N   UNL     1     -45.163  -4.701 -33.079  0.00  0.00    +0.000 N 
ATOM      7  O   UNL     1     -47.080  -4.805 -34.424  0.00  0.00    +0.000 OA
ATOM      8  O   UNL     1     -46.701  -3.123 -31.362  0.00  0.00    +0.000 OA
ENDROOT
BRANCH   1  13
ATOM      9  C   UNL     1     -46.084 -10.836 -28.331  0.00  0.00    +0.000 C 
ATOM     10  C   UNL     1     -46.154  -9.367 -28.545  0.00  0.00    +0.000 A 
ATOM     11  C   UNL     1     -45.609  -8.688 -29.618  0.00  0.00    +0.000 A 
ATOM     12  C   UNL     1     -45.962  -7.385 -29.320  0.00  0.00    +0.000 A 
ATOM     13  C   UNL     1     -45.987  -4.900 -29.848  0.00  0.00    +0.000 C 
ATOM     14  N   UNL     1     -46.654  -7.312 -28.168  0.00  0.00    +0.000 NA
ATOM     15  N   UNL     1     -45.629  -6.259 -30.136  0.00  0.00    +0.000 NA
ATOM     16  O   UNL     1     -46.750  -8.531 -27.729  0.00  0.00    +0.000 OA
ATOM     17  O   UNL     1     -46.657  -4.614 -28.821  0.00  0.00    +0.000 OA
ENDBRANCH   1  13
BRANCH   2  18
ATOM     18  C   UNL     1     -43.594  -3.101 -32.115  0.00  0.00    +0.000 A 
ATOM     19  C   UNL     1     -42.238  -3.386 -32.312  0.00  0.00    +0.000 A 
ATOM     20  C   UNL     1     -41.334  -2.354 -32.579  0.00  0.00    +0.000 A 
ATOM     21  C   UNL     1     -41.783  -1.032 -32.651  0.00  0.00    +0.000 A 
ATOM     22  C   UNL     1     -43.137  -0.741 -32.459  0.00  0.00    +0.000 A 
ATOM     23  C   UNL     1     -44.041  -1.773 -32.191  0.00  0.00    +0.000 A 
ATOM     24 CL   UNL     1     -40.650   0.260 -32.985  0.00  0.00    +0.000 Cl
ENDBRANCH   2  18
TORSDOF 2
ENDMDL
MODEL 3
REMARK VINA RESULT:      -5.8      4.095      6.014
REMARK  Name = ZINC000072241409 ZINC72241409 PubChem-95739679
REMARK  2 active torsions:
REMARK  status: ('A' for Active; 'I' for Inactive)
REMARK    1  A    between atoms: C_5  and  C_6
REMARK    2  A    between atoms: C_7  and  C_11
REMARK                            x       y       z     vdW  Elec       q    Type
REMARK                         _______ _______ _______ _____ _____    ______ ____
ROOT
ATOM      1  C   UNL     1     -44.412 -17.436 -22.001  0.00  0.00    +0.000 C 
ATOM      2  C   UNL     1     -45.632 -17.580 -21.071  0.00  0.00    +0.000 C 
ATOM      3  C   UNL     1     -44.262 -19.428 -20.051  0.00  0.00    +0.000 C 
ATOM      4  C   UNL     1     -43.149 -19.096 -20.991  0.00  0.00    +0.000 C 
ATOM      5  C   UNL     1     -46.676 -19.182 -19.427  0.00  0.00    +0.000 C 
ATOM      6  N   UNL     1     -45.510 -18.736 -20.177  0.00  0.00    +0.000 N 
ATOM      7  O   UNL     1     -44.114 -20.350 -19.204  0.00  0.00    +0.000 OA
ATOM      8  O   UNL     1     -43.185 -17.733 -21.357  0.00  0.00    +0.000 OA
ENDROOT
BRANCH   1  13
ATOM      9  C   UNL     1     -42.308 -19.861 -28.746  0.00  0.00    +0.000 C 
ATOM     10  C   UNL     1     -43.014 -19.519 -27.483  0.00  0.00    +0.000 A 
ATOM     11  C   UNL     1     -42.462 -18.834 -26.417  0.00  0.00    +0.000 A 
ATOM     12  C   UNL     1     -43.529 -18.795 -25.540  0.00  0.00    +0.000 A 
ATOM     13  C   UNL     1     -44.576 -18.126 -23.325  0.00  0.00    +0.000 C 
ATOM     14  N   UNL     1     -44.612 -19.408 -26.053  0.00  0.00    +0.000 NA
ATOM     15  N   UNL     1     -43.482 -18.181 -24.250  0.00  0.00    +0.000 NA
ATOM     16  O   UNL     1     -44.262 -19.832 -27.228  0.00  0.00    +0.000 OA
ATOM     17  O   UNL     1     -45.694 -18.626 -23.619  0.00  0.00    +0.000 OA
ENDBRANCH   1  13
BRANCH   2  18
ATOM     18  C   UNL     1     -45.847 -16.323 -20.286  0.00  0.00    +0.000 A 
ATOM     19  C   UNL     1     -46.316 -15.179 -20.943  0.00  0.00    +0.000 A 
ATOM     20  C   UNL     1     -46.530 -13.997 -20.229  0.00  0.00    +0.000 A 
ATOM     21  C   UNL     1     -46.277 -13.953 -18.855  0.00  0.00    +0.000 A 
ATOM     22  C   UNL     1     -45.811 -15.092 -18.192  0.00  0.00    +0.000 A 
ATOM     23  C   UNL     1     -45.596 -16.276 -18.905  0.00  0.00    +0.000 A 
ATOM     24 CL   UNL     1     -46.545 -12.472 -17.962  0.00  0.00    +0.000 Cl
ENDBRANCH   2  18
TORSDOF 2
ENDMDL
