MODEL 1
REMARK VINA RESULT:      -5.4      0.000      0.000
REMARK  Name = ZINC000239637078 PubChem-124725638
REMARK  7 active torsions:
REMARK  status: ('A' for Active; 'I' for Inactive)
REMARK    1  A    between atoms: C_2  and  C_3
REMARK    2  A    between atoms: C_2  and  C_17
REMARK    3  A    between atoms: C_3  and  N_21
REMARK    4  A    between atoms: C_4  and  C_5
REMARK    5  A    between atoms: C_8  and  N_22
REMARK    6  A    between atoms: C_12  and  C_13
REMARK    7  A    between atoms: C_17  and  N_25
REMARK                            x       y       z     vdW  Elec       q    Type
REMARK                         _______ _______ _______ _____ _____    ______ ____
ROOT
ATOM      1  C   UNL     1     -45.342 -16.300 -24.571  0.00  0.00    +0.000 C 
ATOM      2  C   UNL     1     -46.284 -17.433 -24.985  0.00  0.00    +0.000 C 
ATOM      3  C   UNL     1     -45.395 -18.605 -25.058  0.00  0.00    +0.000 C 
ATOM      4  C   UNL     1     -43.910 -16.866 -24.559  0.00  0.00    +0.000 C 
ATOM      5  N   UNL     1     -44.036 -18.303 -24.781  0.00  0.00    +0.000 N 
ATOM      6  O   UNL     1     -45.798 -19.761 -25.351  0.00  0.00    +0.000 OA
ENDROOT
BRANCH   4   7
ATOM      7  C   UNL     1     -43.103 -16.230 -25.648  0.00  0.00    +0.000 A 
ATOM      8  C   UNL     1     -43.371 -16.307 -27.001  0.00  0.00    +0.000 A 
ATOM      9  C   UNL     1     -40.428 -14.307 -27.065  0.00  0.00    +0.000 C 
ATOM     10  C   UNL     1     -41.956 -15.474 -25.500  0.00  0.00    +0.000 A 
ATOM     11  N   UNL     1     -42.416 -15.609 -27.645  0.00  0.00    +0.000 NA
ATOM     12  N   UNL     1     -41.583 -15.123 -26.740  0.00  0.00    +0.000 N 
ENDBRANCH   4   7
BRANCH   5  13
ATOM     13  C   UNL     1     -42.964 -19.302 -24.633  0.00  0.00    +0.000 C 
ATOM     14  C   UNL     1     -43.436 -20.529 -23.868  0.00  0.00    +0.000 C 
ATOM     15  C   UNL     1     -41.796 -18.691 -23.879  0.00  0.00    +0.000 C 
ATOM     16  C   UNL     1     -42.489 -19.762 -25.998  0.00  0.00    +0.000 C 
ENDBRANCH   5  13
BRANCH   1  17
ATOM     17  C   UNL     1     -45.718 -15.798 -23.215  0.00  0.00    +0.000 C 
ATOM     18  N   UNL     1     -45.179 -16.414 -22.044  0.00  0.00    +0.000 NA
ATOM     19  O   UNL     1     -46.542 -14.849 -23.117  0.00  0.00    +0.000 OA
BRANCH  18  20
ATOM     20  C   UNL     1     -45.569 -16.010 -20.700  0.00  0.00    +0.000 C 
BRANCH  20  22
ATOM     21  C   UNL     1     -46.986 -17.261 -19.059  0.00  0.00    +0.000 C 
ATOM     22  C   UNL     1     -45.644 -17.216 -19.765  0.00  0.00    +0.000 C 
BRANCH  22  23
ATOM     23  C   UNL     1     -45.401 -18.528 -20.502  0.00  0.00    +0.000 C 
BRANCH  23  27
ATOM     24  C   UNL     1     -43.008 -19.171 -20.416  0.00  0.00    +0.000 A 
ATOM     25  C   UNL     1     -42.208 -19.949 -19.596  0.00  0.00    +0.000 A 
ATOM     26  C   UNL     1     -43.067 -20.454 -18.632  0.00  0.00    +0.000 A 
ATOM     27  N   UNL     1     -44.261 -19.240 -19.945  0.00  0.00    +0.000 N 
ATOM     28  N   UNL     1     -44.311 -20.000 -18.868  0.00  0.00    +0.000 NA
ENDBRANCH  23  27
ENDBRANCH  22  23
ENDBRANCH  20  22
ENDBRANCH  18  20
ENDBRANCH   1  17
TORSDOF 7
ENDMDL
MODEL 2
REMARK VINA RESULT:      -5.4     15.391     19.554
REMARK  Name = ZINC000239637078 PubChem-124725638
REMARK  7 active torsions:
REMARK  status: ('A' for Active; 'I' for Inactive)
REMARK    1  A    between atoms: C_2  and  C_3
REMARK    2  A    between atoms: C_2  and  C_17
REMARK    3  A    between atoms: C_3  and  N_21
REMARK    4  A    between atoms: C_4  and  C_5
REMARK    5  A    between atoms: C_8  and  N_22
REMARK    6  A    between atoms: C_12  and  C_13
REMARK    7  A    between atoms: C_17  and  N_25
REMARK                            x       y       z     vdW  Elec       q    Type
REMARK                         _______ _______ _______ _____ _____    ______ ____
ROOT
ATOM      1  C   UNL     1     -42.976  -2.083 -33.416  0.00  0.00    +0.000 C 
ATOM      2  C   UNL     1     -44.367  -1.741 -33.957  0.00  0.00    +0.000 C 
ATOM      3  C   UNL     1     -45.243  -2.713 -33.279  0.00  0.00    +0.000 C 
ATOM      4  C   UNL     1     -43.113  -3.344 -32.543  0.00  0.00    +0.000 C 
ATOM      5  N   UNL     1     -44.543  -3.616 -32.438  0.00  0.00    +0.000 N 
ATOM      6  O   UNL     1     -46.490  -2.748 -33.443  0.00  0.00    +0.000 OA
ENDROOT
BRANCH   4   7
ATOM      7  C   UNL     1     -42.402  -4.491 -33.192  0.00  0.00    +0.000 A 
ATOM      8  C   UNL     1     -41.248  -5.091 -32.728  0.00  0.00    +0.000 A 
ATOM      9  C   UNL     1     -41.817  -7.027 -35.660  0.00  0.00    +0.000 C 
ATOM     10  C   UNL     1     -42.759  -5.138 -34.360  0.00  0.00    +0.000 A 
ATOM     11  N   UNL     1     -40.927  -6.075 -33.590  0.00  0.00    +0.000 NA
ATOM     12  N   UNL     1     -41.833  -6.089 -34.553  0.00  0.00    +0.000 N 
ENDBRANCH   4   7
BRANCH   5  13
ATOM     13  C   UNL     1     -45.178  -4.584 -31.528  0.00  0.00    +0.000 C 
ATOM     14  C   UNL     1     -44.178  -5.184 -30.552  0.00  0.00    +0.000 C 
ATOM     15  C   UNL     1     -45.795  -5.715 -32.332  0.00  0.00    +0.000 C 
ATOM     16  C   UNL     1     -46.263  -3.902 -30.716  0.00  0.00    +0.000 C 
ENDBRANCH   5  13
BRANCH   1  17
ATOM     17  C   UNL     1     -42.452  -0.941 -32.609  0.00  0.00    +0.000 C 
ATOM     18  N   UNL     1     -41.046  -0.796 -32.395  0.00  0.00    +0.000 NA
ATOM     19  O   UNL     1     -43.264  -0.128 -32.091  0.00  0.00    +0.000 OA
BRANCH  18  20
ATOM     20  C   UNL     1     -40.489   0.256 -31.558  0.00  0.00    +0.000 C 
BRANCH  20  22
ATOM     21  C   UNL     1     -38.026  -0.150 -31.364  0.00  0.00    +0.000 C 
ATOM     22  C   UNL     1     -39.103   0.671 -32.048  0.00  0.00    +0.000 C 
BRANCH  22  23
ATOM     23  C   UNL     1     -38.969   0.545 -33.561  0.00  0.00    +0.000 C 
BRANCH  23  27
ATOM     24  C   UNL     1     -39.310   2.250 -35.329  0.00  0.00    +0.000 A 
ATOM     25  C   UNL     1     -38.897   3.551 -35.559  0.00  0.00    +0.000 A 
ATOM     26  C   UNL     1     -38.085   3.867 -34.480  0.00  0.00    +0.000 A 
ATOM     27  N   UNL     1     -38.752   1.844 -34.179  0.00  0.00    +0.000 N 
ATOM     28  N   UNL     1     -38.021   2.807 -33.652  0.00  0.00    +0.000 NA
ENDBRANCH  23  27
ENDBRANCH  22  23
ENDBRANCH  20  22
ENDBRANCH  18  20
ENDBRANCH   1  17
TORSDOF 7
ENDMDL
MODEL 3
REMARK VINA RESULT:      -5.4     12.999     17.282
REMARK  Name = ZINC000239637078 PubChem-124725638
REMARK  7 active torsions:
REMARK  status: ('A' for Active; 'I' for Inactive)
REMARK    1  A    between atoms: C_2  and  C_3
REMARK    2  A    between atoms: C_2  and  C_17
REMARK    3  A    between atoms: C_3  and  N_21
REMARK    4  A    between atoms: C_4  and  C_5
REMARK    5  A    between atoms: C_8  and  N_22
REMARK    6  A    between atoms: C_12  and  C_13
REMARK    7  A    between atoms: C_17  and  N_25
REMARK                            x       y       z     vdW  Elec       q    Type
REMARK                         _______ _______ _______ _____ _____    ______ ____
ROOT
ATOM      1  C   UNL     1     -46.146  -3.704 -31.839  0.00  0.00    +0.000 C 
ATOM      2  C   UNL     1     -47.101  -3.894 -30.658  0.00  0.00    +0.000 C 
ATOM      3  C   UNL     1     -46.524  -5.043 -29.937  0.00  0.00    +0.000 C 
ATOM      4  C   UNL     1     -45.129  -4.859 -31.807  0.00  0.00    +0.000 C 
ATOM      5  N   UNL     1     -45.372  -5.585 -30.564  0.00  0.00    +0.000 N 
ATOM      6  O   UNL     1     -47.014  -5.507 -28.875  0.00  0.00    +0.000 OA
ENDROOT
BRANCH   4   7
ATOM      7  C   UNL     1     -45.337  -5.752 -32.991  0.00  0.00    +0.000 A 
ATOM      8  C   UNL     1     -46.405  -6.608 -33.179  0.00  0.00    +0.000 A 
ATOM      9  C   UNL     1     -44.570  -7.244 -36.161  0.00  0.00    +0.000 C 
ATOM     10  C   UNL     1     -44.505  -5.889 -34.086  0.00  0.00    +0.000 A 
ATOM     11  N   UNL     1     -46.222  -7.233 -34.357  0.00  0.00    +0.000 NA
ATOM     12  N   UNL     1     -45.089  -6.797 -34.882  0.00  0.00    +0.000 N 
ENDBRANCH   4   7
BRANCH   5  13
ATOM     13  C   UNL     1     -44.510  -6.629 -29.985  0.00  0.00    +0.000 C 
ATOM     14  C   UNL     1     -43.205  -6.774 -30.752  0.00  0.00    +0.000 C 
ATOM     15  C   UNL     1     -45.232  -7.965 -30.017  0.00  0.00    +0.000 C 
ATOM     16  C   UNL     1     -44.167  -6.283 -28.549  0.00  0.00    +0.000 C 
ENDBRANCH   5  13
BRANCH   1  17
ATOM     17  C   UNL     1     -45.449  -2.388 -31.720  0.00  0.00    +0.000 C 
ATOM     18  N   UNL     1     -44.619  -1.915 -32.782  0.00  0.00    +0.000 NA
ATOM     19  O   UNL     1     -45.575  -1.718 -30.659  0.00  0.00    +0.000 OA
BRANCH  18  20
ATOM     20  C   UNL     1     -43.861  -0.675 -32.687  0.00  0.00    +0.000 C 
BRANCH  20  22
ATOM     21  C   UNL     1     -42.057  -2.405 -32.542  0.00  0.00    +0.000 C 
ATOM     22  C   UNL     1     -42.408  -0.948 -32.305  0.00  0.00    +0.000 C 
BRANCH  22  23
ATOM     23  C   UNL     1     -41.437  -0.052 -33.065  0.00  0.00    +0.000 C 
BRANCH  23  27
ATOM     24  C   UNL     1     -38.985   0.256 -32.855  0.00  0.00    +0.000 A 
ATOM     25  C   UNL     1     -38.088   0.477 -31.824  0.00  0.00    +0.000 A 
ATOM     26  C   UNL     1     -38.860   0.494 -30.673  0.00  0.00    +0.000 A 
ATOM     27  N   UNL     1     -40.207   0.145 -32.314  0.00  0.00    +0.000 N 
ATOM     28  N   UNL     1     -40.149   0.295 -31.004  0.00  0.00    +0.000 NA
ENDBRANCH  23  27
ENDBRANCH  22  23
ENDBRANCH  20  22
ENDBRANCH  18  20
ENDBRANCH   1  17
TORSDOF 7
ENDMDL
