MODEL 1
REMARK VINA RESULT:      -6.1      0.000      0.000
REMARK  Name = ZINC000225948475
REMARK  9 active torsions:
REMARK  status: ('A' for Active; 'I' for Inactive)
REMARK    1  A    between atoms: C_3  and  S_21
REMARK    2  A    between atoms: C_4  and  C_5
REMARK    3  A    between atoms: C_4  and  S_21
REMARK    4  A    between atoms: C_5  and  N_18
REMARK    5  A    between atoms: C_6  and  C_7
REMARK    6  A    between atoms: C_7  and  C_8
REMARK    7  A    between atoms: C_8  and  C_10
REMARK    8  A    between atoms: C_8  and  N_19
REMARK    9  A    between atoms: N_19  and  S_22
REMARK                            x       y       z     vdW  Elec       q    Type
REMARK                         _______ _______ _______ _____ _____    ______ ____
ROOT
ATOM      1  C   UNL     1     -45.958 -18.854 -23.213  0.00  0.00    +0.000 C 
ENDROOT
BRANCH   1   2
ATOM      2  C   UNL     1     -45.488 -18.723 -24.620  0.00  0.00    +0.000 C 
ATOM      3  N   UNL     1     -44.715 -17.587 -25.003  0.00  0.00    +0.000 NA
ATOM      4  O   UNL     1     -45.807 -19.598 -25.468  0.00  0.00    +0.000 OA
BRANCH   3   5
ATOM      5  C   UNL     1     -44.262 -17.389 -26.371  0.00  0.00    +0.000 C 
BRANCH   5   6
ATOM      6  C   UNL     1     -44.370 -15.922 -26.746  0.00  0.00    +0.000 C 
BRANCH   6   7
ATOM      7  S   UNL     1     -44.876 -14.924 -25.309  0.00  0.00    +0.000 S 
BRANCH   7  10
ATOM      8  C   UNL     1     -47.230 -12.519 -29.292  0.00  0.00    +0.000 C 
ATOM      9  C   UNL     1     -46.783 -12.870 -27.918  0.00  0.00    +0.000 A 
ATOM     10  C   UNL     1     -45.858 -13.809 -26.305  0.00  0.00    +0.000 A 
ATOM     11  N   UNL     1     -47.151 -12.189 -26.820  0.00  0.00    +0.000 NA
ATOM     12  N   UNL     1     -46.564 -12.784 -25.796  0.00  0.00    +0.000 NA
ATOM     13  N   UNL     1     -45.964 -13.903 -27.644  0.00  0.00    +0.000 NA
ENDBRANCH   7  10
ENDBRANCH   6   7
ENDBRANCH   5   6
ENDBRANCH   3   5
ENDBRANCH   1   2
BRANCH   1  14
ATOM     14  C   UNL     1     -44.893 -18.356 -22.244  0.00  0.00    +0.000 C 
BRANCH  14  15
ATOM     15  C   UNL     1     -45.488 -17.414 -21.246  0.00  0.00    +0.000 A 
ATOM     16  C   UNL     1     -45.931 -17.865 -19.993  0.00  0.00    +0.000 A 
ATOM     17  C   UNL     1     -46.476 -16.964 -19.075  0.00  0.00    +0.000 A 
ATOM     18  C   UNL     1     -46.580 -15.609 -19.403  0.00  0.00    +0.000 A 
ATOM     19  C   UNL     1     -46.140 -15.155 -20.649  0.00  0.00    +0.000 A 
ATOM     20  C   UNL     1     -45.593 -16.055 -21.568  0.00  0.00    +0.000 A 
ATOM     21 CL   UNL     1     -47.264 -14.481 -18.253  0.00  0.00    +0.000 Cl
ENDBRANCH  14  15
BRANCH  14  22
ATOM     22  N   UNL     1     -44.265 -19.482 -21.563  0.00  0.00    +0.000 NA
BRANCH  22  24
ATOM     23  C   UNL     1     -42.751 -20.959 -23.519  0.00  0.00    +0.000 C 
ATOM     24  S   UNL     1     -42.691 -19.715 -22.249  0.00  0.00    +0.000 S 
ATOM     25  O   UNL     1     -42.192 -18.424 -22.835  0.00  0.00    +0.000 OA
ATOM     26  O   UNL     1     -41.748 -20.165 -21.170  0.00  0.00    +0.000 OA
ENDBRANCH  22  24
ENDBRANCH  14  22
ENDBRANCH   1  14
TORSDOF 9
ENDMDL
MODEL 2
REMARK VINA RESULT:      -5.5     14.244     16.556
REMARK  Name = ZINC000225948475
REMARK  9 active torsions:
REMARK  status: ('A' for Active; 'I' for Inactive)
REMARK    1  A    between atoms: C_3  and  S_21
REMARK    2  A    between atoms: C_4  and  C_5
REMARK    3  A    between atoms: C_4  and  S_21
REMARK    4  A    between atoms: C_5  and  N_18
REMARK    5  A    between atoms: C_6  and  C_7
REMARK    6  A    between atoms: C_7  and  C_8
REMARK    7  A    between atoms: C_8  and  C_10
REMARK    8  A    between atoms: C_8  and  N_19
REMARK    9  A    between atoms: N_19  and  S_22
REMARK                            x       y       z     vdW  Elec       q    Type
REMARK                         _______ _______ _______ _____ _____    ______ ____
ROOT
ATOM      1  C   UNL     1     -46.678  -3.267 -33.203  0.00  0.00    +0.000 C 
ENDROOT
BRANCH   1   2
ATOM      2  C   UNL     1     -46.810  -4.553 -33.943  0.00  0.00    +0.000 C 
ATOM      3  N   UNL     1     -45.965  -5.652 -33.604  0.00  0.00    +0.000 NA
ATOM      4  O   UNL     1     -47.642  -4.649 -34.884  0.00  0.00    +0.000 OA
BRANCH   3   5
ATOM      5  C   UNL     1     -46.025  -6.917 -34.319  0.00  0.00    +0.000 C 
BRANCH   5   6
ATOM      6  C   UNL     1     -44.656  -7.575 -34.325  0.00  0.00    +0.000 C 
BRANCH   6   7
ATOM      7  S   UNL     1     -43.436  -6.534 -33.461  0.00  0.00    +0.000 S 
BRANCH   7  10
ATOM      8  C   UNL     1     -42.054  -6.017 -38.463  0.00  0.00    +0.000 C 
ATOM      9  C   UNL     1     -42.138  -5.818 -36.992  0.00  0.00    +0.000 A 
ATOM     10  C   UNL     1     -42.670  -5.996 -34.985  0.00  0.00    +0.000 A 
ATOM     11  N   UNL     1     -41.414  -4.904 -36.323  0.00  0.00    +0.000 NA
ATOM     12  N   UNL     1     -41.749  -5.018 -35.050  0.00  0.00    +0.000 NA
ATOM     13  N   UNL     1     -42.946  -6.535 -36.189  0.00  0.00    +0.000 NA
ENDBRANCH   7  10
ENDBRANCH   6   7
ENDBRANCH   5   6
ENDBRANCH   3   5
ENDBRANCH   1   2
BRANCH   1  14
ATOM     14  C   UNL     1     -45.717  -3.420 -32.031  0.00  0.00    +0.000 C 
BRANCH  14  15
ATOM     15  C   UNL     1     -44.509  -2.559 -32.226  0.00  0.00    +0.000 A 
ATOM     16  C   UNL     1     -44.628  -1.182 -32.467  0.00  0.00    +0.000 A 
ATOM     17  C   UNL     1     -43.484  -0.397 -32.638  0.00  0.00    +0.000 A 
ATOM     18  C   UNL     1     -42.217  -0.984 -32.567  0.00  0.00    +0.000 A 
ATOM     19  C   UNL     1     -42.094  -2.355 -32.326  0.00  0.00    +0.000 A 
ATOM     20  C   UNL     1     -43.237  -3.141 -32.154  0.00  0.00    +0.000 A 
ATOM     21 CL   UNL     1     -40.785  -0.002 -32.782  0.00  0.00    +0.000 Cl
ENDBRANCH  14  15
BRANCH  14  22
ATOM     22  N   UNL     1     -46.386  -3.076 -30.782  0.00  0.00    +0.000 NA
BRANCH  22  24
ATOM     23  C   UNL     1     -45.163  -5.530 -29.902  0.00  0.00    +0.000 C 
ATOM     24  S   UNL     1     -46.639  -4.538 -29.887  0.00  0.00    +0.000 S 
ATOM     25  O   UNL     1     -47.010  -4.212 -28.468  0.00  0.00    +0.000 OA
ATOM     26  O   UNL     1     -47.755  -5.315 -30.524  0.00  0.00    +0.000 OA
ENDBRANCH  22  24
ENDBRANCH  14  22
ENDBRANCH   1  14
TORSDOF 9
ENDMDL
MODEL 3
REMARK VINA RESULT:      -5.3      4.627      7.380
REMARK  Name = ZINC000225948475
REMARK  9 active torsions:
REMARK  status: ('A' for Active; 'I' for Inactive)
REMARK    1  A    between atoms: C_3  and  S_21
REMARK    2  A    between atoms: C_4  and  C_5
REMARK    3  A    between atoms: C_4  and  S_21
REMARK    4  A    between atoms: C_5  and  N_18
REMARK    5  A    between atoms: C_6  and  C_7
REMARK    6  A    between atoms: C_7  and  C_8
REMARK    7  A    between atoms: C_8  and  C_10
REMARK    8  A    between atoms: C_8  and  N_19
REMARK    9  A    between atoms: N_19  and  S_22
REMARK                            x       y       z     vdW  Elec       q    Type
REMARK                         _______ _______ _______ _____ _____    ______ ____
ROOT
ATOM      1  C   UNL     1     -46.067 -18.061 -19.443  0.00  0.00    +0.000 C 
ENDROOT
BRANCH   1   2
ATOM      2  C   UNL     1     -44.914 -18.906 -19.022  0.00  0.00    +0.000 C 
ATOM      3  N   UNL     1     -43.630 -18.310 -18.844  0.00  0.00    +0.000 NA
ATOM      4  O   UNL     1     -45.075 -20.144 -18.858  0.00  0.00    +0.000 OA
BRANCH   3   5
ATOM      5  C   UNL     1     -42.463 -19.093 -18.470  0.00  0.00    +0.000 C 
BRANCH   5   6
ATOM      6  C   UNL     1     -41.482 -19.147 -19.628  0.00  0.00    +0.000 C 
BRANCH   6   7
ATOM      7  S   UNL     1     -40.763 -20.813 -19.788  0.00  0.00    +0.000 S 
BRANCH   7  10
ATOM      8  C   UNL     1     -43.578 -20.335 -24.151  0.00  0.00    +0.000 C 
ATOM      9  C   UNL     1     -42.727 -20.906 -23.074  0.00  0.00    +0.000 A 
ATOM     10  C   UNL     1     -41.594 -21.129 -21.340  0.00  0.00    +0.000 A 
ATOM     11  N   UNL     1     -42.290 -22.176 -23.066  0.00  0.00    +0.000 NA
ATOM     12  N   UNL     1     -41.572 -22.319 -21.966  0.00  0.00    +0.000 NA
ATOM     13  N   UNL     1     -42.315 -20.203 -22.002  0.00  0.00    +0.000 NA
ENDBRANCH   7  10
ENDBRANCH   6   7
ENDBRANCH   5   6
ENDBRANCH   3   5
ENDBRANCH   1   2
BRANCH   1  14
ATOM     14  C   UNL     1     -45.614 -16.632 -19.710  0.00  0.00    +0.000 C 
BRANCH  14  15
ATOM     15  C   UNL     1     -45.632 -16.338 -21.177  0.00  0.00    +0.000 A 
ATOM     16  C   UNL     1     -46.065 -15.097 -21.665  0.00  0.00    +0.000 A 
ATOM     17  C   UNL     1     -46.066 -14.844 -23.040  0.00  0.00    +0.000 A 
ATOM     18  C   UNL     1     -45.632 -15.829 -23.932  0.00  0.00    +0.000 A 
ATOM     19  C   UNL     1     -45.199 -17.067 -23.450  0.00  0.00    +0.000 A 
ATOM     20  C   UNL     1     -45.197 -17.321 -22.075  0.00  0.00    +0.000 A 
ATOM     21 CL   UNL     1     -45.634 -15.513 -25.653  0.00  0.00    +0.000 Cl
ENDBRANCH  14  15
BRANCH  14  22
ATOM     22  N   UNL     1     -46.469 -15.691 -18.997  0.00  0.00    +0.000 NA
BRANCH  22  24
ATOM     23  C   UNL     1     -45.055 -13.188 -18.822  0.00  0.00    +0.000 C 
ATOM     24  S   UNL     1     -45.461 -14.705 -17.989  0.00  0.00    +0.000 S 
ATOM     25  O   UNL     1     -46.171 -14.396 -16.701  0.00  0.00    +0.000 OA
ATOM     26  O   UNL     1     -44.192 -15.451 -17.687  0.00  0.00    +0.000 OA
ENDBRANCH  22  24
ENDBRANCH  14  22
ENDBRANCH   1  14
TORSDOF 9
ENDMDL
