MODEL 1
REMARK VINA RESULT:      -6.5      0.000      0.000
REMARK  Name = ZINC000005035803 ZINC05035803 PubChem-92248579
REMARK  6 active torsions:
REMARK  status: ('A' for Active; 'I' for Inactive)
REMARK    1  A    between atoms: C_5  and  C_8
REMARK    2  A    between atoms: C_8  and  N_22
REMARK    3  A    between atoms: C_9  and  C_10
REMARK    4  A    between atoms: C_13  and  C_14
REMARK    5  A    between atoms: C_17  and  O_27
REMARK    6  A    between atoms: C_18  and  O_26
REMARK                            x       y       z     vdW  Elec       q    Type
REMARK                         _______ _______ _______ _____ _____    ______ ____
ROOT
ATOM      1  C   UNL     1     -44.355 -18.565 -26.014  0.00  0.00    +0.000 C 
ATOM      2  C   UNL     1     -43.612 -19.405 -27.056  0.00  0.00    +0.000 C 
ATOM      3  C   UNL     1     -42.539 -18.493 -27.495  0.00  0.00    +0.000 C 
ATOM      4  C   UNL     1     -43.596 -17.233 -25.883  0.00  0.00    +0.000 C 
ATOM      5  O   UNL     1     -41.694 -18.779 -28.382  0.00  0.00    +0.000 OA
ATOM      6  O   UNL     1     -42.553 -17.284 -26.840  0.00  0.00    +0.000 OA
ENDROOT
BRANCH   4   7
ATOM      7  C   UNL     1     -44.501 -16.073 -26.149  0.00  0.00    +0.000 A 
ATOM      8  C   UNL     1     -45.322 -15.549 -25.143  0.00  0.00    +0.000 A 
ATOM      9  C   UNL     1     -46.155 -14.462 -25.415  0.00  0.00    +0.000 A 
ATOM     10  C   UNL     1     -46.177 -13.883 -26.694  0.00  0.00    +0.000 A 
ATOM     11  C   UNL     1     -45.351 -14.403 -27.704  0.00  0.00    +0.000 A 
ATOM     12  C   UNL     1     -44.516 -15.497 -27.422  0.00  0.00    +0.000 A 
BRANCH  11  14
ATOM     13  C   UNL     1     -44.379 -12.908 -29.422  0.00  0.00    +0.000 C 
ATOM     14  O   UNL     1     -45.376 -13.817 -28.975  0.00  0.00    +0.000 OA
ENDBRANCH  11  14
BRANCH  10  16
ATOM     15  C   UNL     1     -46.652 -11.453 -26.667  0.00  0.00    +0.000 C 
ATOM     16  O   UNL     1     -47.006 -12.793 -26.983  0.00  0.00    +0.000 OA
ENDBRANCH  10  16
ENDBRANCH   4   7
BRANCH   1  17
ATOM     17  C   UNL     1     -44.403 -19.269 -24.697  0.00  0.00    +0.000 C 
ATOM     18  N   UNL     1     -44.160 -18.548 -23.488  0.00  0.00    +0.000 NA
ATOM     19  O   UNL     1     -44.666 -20.500 -24.666  0.00  0.00    +0.000 OA
BRANCH  18  20
ATOM     20  C   UNL     1     -44.269 -19.173 -22.179  0.00  0.00    +0.000 C 
BRANCH  20  25
ATOM     21  C   UNL     1     -47.276 -15.793 -18.594  0.00  0.00    +0.000 C 
ATOM     22  C   UNL     1     -46.511 -16.663 -19.526  0.00  0.00    +0.000 A 
ATOM     23  C   UNL     1     -45.811 -16.095 -20.596  0.00  0.00    +0.000 A 
ATOM     24  C   UNL     1     -45.087 -16.913 -21.469  0.00  0.00    +0.000 A 
ATOM     25  C   UNL     1     -45.065 -18.300 -21.274  0.00  0.00    +0.000 A 
ATOM     26  C   UNL     1     -45.760 -18.864 -20.199  0.00  0.00    +0.000 A 
ATOM     27  C   UNL     1     -46.486 -18.046 -19.328  0.00  0.00    +0.000 A 
ENDBRANCH  20  25
ENDBRANCH  18  20
ENDBRANCH   1  17
TORSDOF 6
ENDMDL
MODEL 2
REMARK VINA RESULT:      -6.4     10.950     15.469
REMARK  Name = ZINC000005035803 ZINC05035803 PubChem-92248579
REMARK  6 active torsions:
REMARK  status: ('A' for Active; 'I' for Inactive)
REMARK    1  A    between atoms: C_5  and  C_8
REMARK    2  A    between atoms: C_8  and  N_22
REMARK    3  A    between atoms: C_9  and  C_10
REMARK    4  A    between atoms: C_13  and  C_14
REMARK    5  A    between atoms: C_17  and  O_27
REMARK    6  A    between atoms: C_18  and  O_26
REMARK                            x       y       z     vdW  Elec       q    Type
REMARK                         _______ _______ _______ _____ _____    ______ ____
ROOT
ATOM      1  C   UNL     1     -45.821  -5.194 -30.727  0.00  0.00    +0.000 C 
ATOM      2  C   UNL     1     -45.720  -6.324 -31.755  0.00  0.00    +0.000 C 
ATOM      3  C   UNL     1     -46.963  -7.082 -31.519  0.00  0.00    +0.000 C 
ATOM      4  C   UNL     1     -47.173  -5.355 -30.011  0.00  0.00    +0.000 C 
ATOM      5  O   UNL     1     -47.276  -8.129 -32.143  0.00  0.00    +0.000 OA
ATOM      6  O   UNL     1     -47.754  -6.536 -30.535  0.00  0.00    +0.000 OA
ENDROOT
BRANCH   4   7
ATOM      7  C   UNL     1     -46.985  -5.472 -28.532  0.00  0.00    +0.000 A 
ATOM      8  C   UNL     1     -46.428  -6.624 -27.962  0.00  0.00    +0.000 A 
ATOM      9  C   UNL     1     -46.259  -6.709 -26.578  0.00  0.00    +0.000 A 
ATOM     10  C   UNL     1     -46.639  -5.642 -25.747  0.00  0.00    +0.000 A 
ATOM     11  C   UNL     1     -47.193  -4.484 -26.316  0.00  0.00    +0.000 A 
ATOM     12  C   UNL     1     -47.361  -4.408 -27.709  0.00  0.00    +0.000 A 
BRANCH  11  14
ATOM     13  C   UNL     1     -47.304  -2.065 -25.800  0.00  0.00    +0.000 C 
ATOM     14  O   UNL     1     -47.567  -3.425 -25.480  0.00  0.00    +0.000 OA
ENDBRANCH  11  14
BRANCH  10  16
ATOM     15  C   UNL     1     -47.285  -6.534 -23.529  0.00  0.00    +0.000 C 
ATOM     16  O   UNL     1     -46.476  -5.710 -24.359  0.00  0.00    +0.000 OA
ENDBRANCH  10  16
ENDBRANCH   4   7
BRANCH   1  17
ATOM     17  C   UNL     1     -45.739  -3.860 -31.391  0.00  0.00    +0.000 C 
ATOM     18  N   UNL     1     -45.317  -3.758 -32.752  0.00  0.00    +0.000 NA
ATOM     19  O   UNL     1     -46.050  -2.828 -30.740  0.00  0.00    +0.000 OA
BRANCH  18  20
ATOM     20  C   UNL     1     -45.292  -2.490 -33.463  0.00  0.00    +0.000 C 
BRANCH  20  25
ATOM     21  C   UNL     1     -40.186   0.050 -32.566  0.00  0.00    +0.000 C 
ATOM     22  C   UNL     1     -41.501  -0.601 -32.810  0.00  0.00    +0.000 A 
ATOM     23  C   UNL     1     -41.552  -1.892 -33.347  0.00  0.00    +0.000 A 
ATOM     24  C   UNL     1     -42.789  -2.506 -33.570  0.00  0.00    +0.000 A 
ATOM     25  C   UNL     1     -43.974  -1.829 -33.259  0.00  0.00    +0.000 A 
ATOM     26  C   UNL     1     -43.920  -0.540 -32.715  0.00  0.00    +0.000 A 
ATOM     27  C   UNL     1     -42.683   0.074 -32.495  0.00  0.00    +0.000 A 
ENDBRANCH  20  25
ENDBRANCH  18  20
ENDBRANCH   1  17
TORSDOF 6
ENDMDL
MODEL 3
REMARK VINA RESULT:      -6.4     10.419     14.884
REMARK  Name = ZINC000005035803 ZINC05035803 PubChem-92248579
REMARK  6 active torsions:
REMARK  status: ('A' for Active; 'I' for Inactive)
REMARK    1  A    between atoms: C_5  and  C_8
REMARK    2  A    between atoms: C_8  and  N_22
REMARK    3  A    between atoms: C_9  and  C_10
REMARK    4  A    between atoms: C_13  and  C_14
REMARK    5  A    between atoms: C_17  and  O_27
REMARK    6  A    between atoms: C_18  and  O_26
REMARK                            x       y       z     vdW  Elec       q    Type
REMARK                         _______ _______ _______ _____ _____    ______ ____
ROOT
ATOM      1  C   UNL     1     -46.338  -5.041 -26.914  0.00  0.00    +0.000 C 
ATOM      2  C   UNL     1     -45.515  -6.331 -26.956  0.00  0.00    +0.000 C 
ATOM      3  C   UNL     1     -46.133  -7.138 -25.888  0.00  0.00    +0.000 C 
ATOM      4  C   UNL     1     -47.431  -5.236 -25.849  0.00  0.00    +0.000 C 
ATOM      5  O   UNL     1     -45.738  -8.286 -25.558  0.00  0.00    +0.000 OA
ATOM      6  O   UNL     1     -47.191  -6.509 -25.273  0.00  0.00    +0.000 OA
ENDROOT
BRANCH   4   7
ATOM      7  C   UNL     1     -47.363  -4.165 -24.808  0.00  0.00    +0.000 A 
ATOM      8  C   UNL     1     -47.347  -2.810 -25.163  0.00  0.00    +0.000 A 
ATOM      9  C   UNL     1     -47.287  -1.828 -24.173  0.00  0.00    +0.000 A 
ATOM     10  C   UNL     1     -47.245  -2.186 -22.815  0.00  0.00    +0.000 A 
ATOM     11  C   UNL     1     -47.266  -3.543 -22.456  0.00  0.00    +0.000 A 
ATOM     12  C   UNL     1     -47.326  -4.525 -23.459  0.00  0.00    +0.000 A 
BRANCH  11  14
ATOM     13  C   UNL     1     -46.041  -4.332 -20.454  0.00  0.00    +0.000 C 
ATOM     14  O   UNL     1     -47.228  -3.891 -21.100  0.00  0.00    +0.000 OA
ENDBRANCH  11  14
BRANCH  10  16
ATOM     15  C   UNL     1     -45.962  -0.640 -21.367  0.00  0.00    +0.000 C 
ATOM     16  O   UNL     1     -47.185  -1.214 -21.810  0.00  0.00    +0.000 OA
ENDBRANCH  10  16
ENDBRANCH   4   7
BRANCH   1  17
ATOM     17  C   UNL     1     -46.953  -4.756 -28.245  0.00  0.00    +0.000 C 
ATOM     18  N   UNL     1     -46.635  -5.574 -29.373  0.00  0.00    +0.000 NA
ATOM     19  O   UNL     1     -47.756  -3.794 -28.359  0.00  0.00    +0.000 OA
BRANCH  18  20
ATOM     20  C   UNL     1     -47.265  -5.381 -30.670  0.00  0.00    +0.000 C 
BRANCH  20  25
ATOM     21  C   UNL     1     -44.150  -1.680 -33.820  0.00  0.00    +0.000 C 
ATOM     22  C   UNL     1     -44.958  -2.623 -33.002  0.00  0.00    +0.000 A 
ATOM     23  C   UNL     1     -46.285  -2.893 -33.354  0.00  0.00    +0.000 A 
ATOM     24  C   UNL     1     -47.042  -3.786 -32.589  0.00  0.00    +0.000 A 
ATOM     25  C   UNL     1     -46.474  -4.406 -31.469  0.00  0.00    +0.000 A 
ATOM     26  C   UNL     1     -45.145  -4.139 -31.123  0.00  0.00    +0.000 A 
ATOM     27  C   UNL     1     -44.389  -3.245 -31.887  0.00  0.00    +0.000 A 
ENDBRANCH  20  25
ENDBRANCH  18  20
ENDBRANCH   1  17
TORSDOF 6
ENDMDL
