MODEL 1
REMARK VINA RESULT:      -6.6      0.000      0.000
REMARK  Name = ZINC000072242290 ZINC72242290 PubChem-95740501
REMARK  4 active torsions:
REMARK  status: ('A' for Active; 'I' for Inactive)
REMARK    1  A    between atoms: C_5  and  C_6
REMARK    2  A    between atoms: C_6  and  N_22
REMARK    3  A    between atoms: C_7  and  C_8
REMARK    4  A    between atoms: C_11  and  C_12
REMARK                            x       y       z     vdW  Elec       q    Type
REMARK                         _______ _______ _______ _____ _____    ______ ____
ROOT
ATOM      1  C   UNL     1     -46.335  -5.045 -30.446  0.00  0.00    +0.000 C 
ATOM      2  C   UNL     1     -47.303  -6.095 -31.007  0.00  0.00    +0.000 C 
ATOM      3  C   UNL     1     -46.531  -6.712 -32.104  0.00  0.00    +0.000 C 
ATOM      4  C   UNL     1     -45.005  -5.176 -31.213  0.00  0.00    +0.000 C 
ATOM      5  C   UNL     1     -44.191  -6.736 -33.082  0.00  0.00    +0.000 C 
ATOM      6  O   UNL     1     -46.975  -7.631 -32.840  0.00  0.00    +0.000 OA
ATOM      7  N   UNL     1     -45.236  -6.169 -32.244  0.00  0.00    +0.000 N 
ENDROOT
BRANCH   4   8
ATOM      8  C   UNL     1     -44.599  -3.861 -31.807  0.00  0.00    +0.000 A 
ATOM      9  C   UNL     1     -43.279  -3.424 -31.653  0.00  0.00    +0.000 A 
ATOM     10  C   UNL     1     -42.875  -2.201 -32.200  0.00  0.00    +0.000 A 
ATOM     11  C   UNL     1     -43.791  -1.413 -32.903  0.00  0.00    +0.000 A 
ATOM     12  C   UNL     1     -45.111  -1.845 -33.059  0.00  0.00    +0.000 A 
ATOM     13  C   UNL     1     -45.516  -3.067 -32.512  0.00  0.00    +0.000 A 
ATOM     14  F   UNL     1     -43.396  -0.234 -33.438  0.00  0.00    +0.000 F 
ENDBRANCH   4   8
BRANCH   1  15
ATOM     15  C   UNL     1     -46.115  -5.250 -28.984  0.00  0.00    +0.000 C 
ATOM     16  O   UNL     1     -45.072  -5.841 -28.594  0.00  0.00    +0.000 OA
ATOM     17  N   UNL     1     -47.083  -4.789 -28.038  0.00  0.00    +0.000 NA
BRANCH  17  18
ATOM     18  C   UNL     1     -46.913  -4.979 -26.607  0.00  0.00    +0.000 C 
BRANCH  18  23
ATOM     19  C   UNL     1     -47.347  -1.711 -22.968  0.00  0.00    +0.000 C 
ATOM     20  C   UNL     1     -47.290  -2.274 -24.343  0.00  0.00    +0.000 A 
ATOM     21  C   UNL     1     -47.450  -1.545 -25.506  0.00  0.00    +0.000 A 
ATOM     22  C   UNL     1     -47.326  -2.469 -26.533  0.00  0.00    +0.000 A 
ATOM     23  C   UNL     1     -47.095  -3.679 -25.908  0.00  0.00    +0.000 A 
ATOM     24  O   UNL     1     -47.082  -3.539 -24.606  0.00  0.00    +0.000 OA
ENDBRANCH  18  23
ENDBRANCH  17  18
ENDBRANCH   1  15
TORSDOF 4
ENDMDL
MODEL 2
REMARK VINA RESULT:      -6.2      3.049      3.705
REMARK  Name = ZINC000072242290 ZINC72242290 PubChem-95740501
REMARK  4 active torsions:
REMARK  status: ('A' for Active; 'I' for Inactive)
REMARK    1  A    between atoms: C_5  and  C_6
REMARK    2  A    between atoms: C_6  and  N_22
REMARK    3  A    between atoms: C_7  and  C_8
REMARK    4  A    between atoms: C_11  and  C_12
REMARK                            x       y       z     vdW  Elec       q    Type
REMARK                         _______ _______ _______ _____ _____    ______ ____
ROOT
ATOM      1  C   UNL     1     -46.324  -3.899 -32.319  0.00  0.00    +0.000 C 
ATOM      2  C   UNL     1     -47.240  -4.542 -33.369  0.00  0.00    +0.000 C 
ATOM      3  C   UNL     1     -46.295  -5.268 -34.240  0.00  0.00    +0.000 C 
ATOM      4  C   UNL     1     -44.884  -4.367 -32.603  0.00  0.00    +0.000 C 
ATOM      5  C   UNL     1     -43.849  -5.929 -34.358  0.00  0.00    +0.000 C 
ATOM      6  O   UNL     1     -46.645  -5.933 -35.249  0.00  0.00    +0.000 OA
ATOM      7  N   UNL     1     -44.951  -5.143 -33.826  0.00  0.00    +0.000 N 
ENDROOT
BRANCH   4   8
ATOM      8  C   UNL     1     -43.961  -3.196 -32.754  0.00  0.00    +0.000 A 
ATOM      9  C   UNL     1     -44.470  -1.986 -33.237  0.00  0.00    +0.000 A 
ATOM     10  C   UNL     1     -43.628  -0.878 -33.385  0.00  0.00    +0.000 A 
ATOM     11  C   UNL     1     -42.274  -0.979 -33.049  0.00  0.00    +0.000 A 
ATOM     12  C   UNL     1     -41.761  -2.186 -32.568  0.00  0.00    +0.000 A 
ATOM     13  C   UNL     1     -42.601  -3.294 -32.420  0.00  0.00    +0.000 A 
ATOM     14  F   UNL     1     -41.463   0.096 -33.187  0.00  0.00    +0.000 F 
ENDBRANCH   4   8
BRANCH   1  15
ATOM     15  C   UNL     1     -46.736  -4.291 -30.939  0.00  0.00    +0.000 C 
ATOM     16  O   UNL     1     -47.129  -3.402 -30.137  0.00  0.00    +0.000 OA
ATOM     17  N   UNL     1     -46.673  -5.660 -30.531  0.00  0.00    +0.000 NA
BRANCH  17  18
ATOM     18  C   UNL     1     -47.053  -6.083 -29.193  0.00  0.00    +0.000 C 
BRANCH  18  23
ATOM     19  C   UNL     1     -42.308  -6.463 -27.988  0.00  0.00    +0.000 C 
ATOM     20  C   UNL     1     -43.790  -6.508 -27.868  0.00  0.00    +0.000 A 
ATOM     21  C   UNL     1     -44.483  -6.898 -26.739  0.00  0.00    +0.000 A 
ATOM     22  C   UNL     1     -45.823  -6.789 -27.080  0.00  0.00    +0.000 A 
ATOM     23  C   UNL     1     -45.830  -6.336 -28.385  0.00  0.00    +0.000 A 
ATOM     24  O   UNL     1     -44.610  -6.180 -28.833  0.00  0.00    +0.000 OA
ENDBRANCH  18  23
ENDBRANCH  17  18
ENDBRANCH   1  15
TORSDOF 4
ENDMDL
MODEL 3
REMARK VINA RESULT:      -6.1      3.200      4.591
REMARK  Name = ZINC000072242290 ZINC72242290 PubChem-95740501
REMARK  4 active torsions:
REMARK  status: ('A' for Active; 'I' for Inactive)
REMARK    1  A    between atoms: C_5  and  C_6
REMARK    2  A    between atoms: C_6  and  N_22
REMARK    3  A    between atoms: C_7  and  C_8
REMARK    4  A    between atoms: C_11  and  C_12
REMARK                            x       y       z     vdW  Elec       q    Type
REMARK                         _______ _______ _______ _____ _____    ______ ____
ROOT
ATOM      1  C   UNL     1     -46.255  -3.712 -31.996  0.00  0.00    +0.000 C 
ATOM      2  C   UNL     1     -47.277  -4.284 -32.988  0.00  0.00    +0.000 C 
ATOM      3  C   UNL     1     -46.433  -4.982 -33.977  0.00  0.00    +0.000 C 
ATOM      4  C   UNL     1     -44.859  -4.192 -32.433  0.00  0.00    +0.000 C 
ATOM      5  C   UNL     1     -44.024  -5.683 -34.350  0.00  0.00    +0.000 C 
ATOM      6  O   UNL     1     -46.888  -5.589 -34.980  0.00  0.00    +0.000 OA
ATOM      7  N   UNL     1     -45.054  -4.904 -33.682  0.00  0.00    +0.000 N 
ENDROOT
BRANCH   4   8
ATOM      8  C   UNL     1     -43.925  -3.033 -32.611  0.00  0.00    +0.000 A 
ATOM      9  C   UNL     1     -44.430  -1.820 -33.090  0.00  0.00    +0.000 A 
ATOM     10  C   UNL     1     -43.579  -0.723 -33.262  0.00  0.00    +0.000 A 
ATOM     11  C   UNL     1     -42.220  -0.837 -32.956  0.00  0.00    +0.000 A 
ATOM     12  C   UNL     1     -41.710  -2.048 -32.478  0.00  0.00    +0.000 A 
ATOM     13  C   UNL     1     -42.560  -3.145 -32.306  0.00  0.00    +0.000 A 
ATOM     14  F   UNL     1     -41.400   0.227 -33.117  0.00  0.00    +0.000 F 
ENDBRANCH   4   8
BRANCH   1  15
ATOM     15  C   UNL     1     -46.549  -4.166 -30.605  0.00  0.00    +0.000 C 
ATOM     16  O   UNL     1     -46.699  -3.307 -29.695  0.00  0.00    +0.000 OA
ATOM     17  N   UNL     1     -46.649  -5.561 -30.309  0.00  0.00    +0.000 NA
BRANCH  17  18
ATOM     18  C   UNL     1     -46.922  -6.046 -28.966  0.00  0.00    +0.000 C 
BRANCH  18  23
ATOM     19  C   UNL     1     -46.436 -10.674 -30.535  0.00  0.00    +0.000 C 
ATOM     20  C   UNL     1     -46.596  -9.520 -29.611  0.00  0.00    +0.000 A 
ATOM     21  C   UNL     1     -46.704  -9.612 -28.237  0.00  0.00    +0.000 A 
ATOM     22  C   UNL     1     -46.840  -8.305 -27.795  0.00  0.00    +0.000 A 
ATOM     23  C   UNL     1     -46.797  -7.528 -28.937  0.00  0.00    +0.000 A 
ATOM     24  O   UNL     1     -46.655  -8.273 -30.004  0.00  0.00    +0.000 OA
ENDBRANCH  18  23
ENDBRANCH  17  18
ENDBRANCH   1  15
TORSDOF 4
ENDMDL
