MODEL 1
REMARK VINA RESULT:      -6.7      0.000      0.000
REMARK  Name = ZINC000012772569 CSC027018696 MCULE-2308435649 MolPort-005-665-378
REMARK  4 active torsions:
REMARK  status: ('A' for Active; 'I' for Inactive)
REMARK    1  A    between atoms: C_2  and  O_23
REMARK    2  A    between atoms: C_3  and  N_28
REMARK    3  A    between atoms: C_4  and  C_5
REMARK    4  A    between atoms: C_20  and  N_31
REMARK                            x       y       z     vdW  Elec       q    Type
REMARK                         _______ _______ _______ _____ _____    ______ ____
ROOT
ATOM      1  C   UNL     1     -46.345  -5.798 -28.530  0.00  0.00    +0.000 A 
ATOM      2  C   UNL     1     -46.978  -7.048 -28.466  0.00  0.00    +0.000 A 
ATOM      3  C   UNL     1     -46.227  -8.214 -28.305  0.00  0.00    +0.000 A 
ATOM      4  C   UNL     1     -44.825  -8.143 -28.217  0.00  0.00    +0.000 A 
ATOM      5  C   UNL     1     -44.106  -9.335 -28.059  0.00  0.00    +0.000 A 
ATOM      6  C   UNL     1     -46.142 -10.566 -28.074  0.00  0.00    +0.000 A 
ATOM      7  C   UNL     1     -46.894 -11.863 -28.015  0.00  0.00    +0.000 C 
ATOM      8  C   UNL     1     -47.028 -12.488 -29.399  0.00  0.00    +0.000 C 
ATOM      9  C   UNL     1     -45.794 -13.300 -29.774  0.00  0.00    +0.000 C 
ATOM     10  C   UNL     1     -44.674 -12.387 -30.246  0.00  0.00    +0.000 C 
ATOM     11  C   UNL     1     -43.548 -12.292 -29.218  0.00  0.00    +0.000 C 
ATOM     12  C   UNL     1     -44.020 -11.779 -27.857  0.00  0.00    +0.000 C 
ATOM     13  C   UNL     1     -44.189  -6.898 -28.296  0.00  0.00    +0.000 A 
ATOM     14  C   UNL     1     -44.945  -5.734 -28.456  0.00  0.00    +0.000 A 
ATOM     15  O   UNL     1     -42.845  -9.305 -27.979  0.00  0.00    +0.000 OA
ATOM     16  N   UNL     1     -44.773 -10.530 -27.992  0.00  0.00    +0.000 N 
ATOM     17  N   UNL     1     -46.847  -9.416 -28.234  0.00  0.00    +0.000 NA
ENDROOT
BRANCH   1  18
ATOM     18  C   UNL     1     -47.149  -4.573 -28.719  0.00  0.00    +0.000 C 
ATOM     19  O   UNL     1     -47.755  -4.075 -27.733  0.00  0.00    +0.000 OA
ATOM     20  N   UNL     1     -47.309  -3.956 -30.006  0.00  0.00    +0.000 NA
BRANCH  20  22
ATOM     21  C   UNL     1     -46.157  -4.846 -31.979  0.00  0.00    +0.000 A 
ATOM     22  C   UNL     1     -46.294  -3.837 -31.013  0.00  0.00    +0.000 A 
ATOM     23  C   UNL     1     -45.477  -2.698 -31.080  0.00  0.00    +0.000 A 
ATOM     24  C   UNL     1     -44.506  -2.568 -32.079  0.00  0.00    +0.000 A 
ATOM     25  C   UNL     1     -44.364  -3.586 -33.032  0.00  0.00    +0.000 A 
ATOM     26  C   UNL     1     -45.185  -4.715 -32.983  0.00  0.00    +0.000 A 
BRANCH  24  29
ATOM     27  O   UNL     1     -44.225  -0.147 -32.114  0.00  0.00    +0.000 OA
ATOM     28  O   UNL     1     -42.425  -1.519 -32.163  0.00  0.00    +0.000 OA
ATOM     29  N   UNL     1     -43.667  -1.405 -32.123  0.00  0.00    +0.000 N 
ENDBRANCH  24  29
BRANCH  21  31
ATOM     30  C   UNL     1     -46.588  -7.251 -32.382  0.00  0.00    +0.000 C 
ATOM     31  O   UNL     1     -46.991  -5.968 -31.922  0.00  0.00    +0.000 OA
ENDBRANCH  21  31
ENDBRANCH  20  22
ENDBRANCH   1  18
TORSDOF 4
ENDMDL
MODEL 2
REMARK VINA RESULT:      -6.6      7.794     13.499
REMARK  Name = ZINC000012772569 CSC027018696 MCULE-2308435649 MolPort-005-665-378
REMARK  4 active torsions:
REMARK  status: ('A' for Active; 'I' for Inactive)
REMARK    1  A    between atoms: C_2  and  O_23
REMARK    2  A    between atoms: C_3  and  N_28
REMARK    3  A    between atoms: C_4  and  C_5
REMARK    4  A    between atoms: C_20  and  N_31
REMARK                            x       y       z     vdW  Elec       q    Type
REMARK                         _______ _______ _______ _____ _____    ______ ____
ROOT
ATOM      1  C   UNL     1     -45.021 -18.462 -24.969  0.00  0.00    +0.000 A 
ATOM      2  C   UNL     1     -44.658 -17.759 -26.126  0.00  0.00    +0.000 A 
ATOM      3  C   UNL     1     -44.862 -16.380 -26.211  0.00  0.00    +0.000 A 
ATOM      4  C   UNL     1     -45.445 -15.687 -25.134  0.00  0.00    +0.000 A 
ATOM      5  C   UNL     1     -45.636 -14.304 -25.257  0.00  0.00    +0.000 A 
ATOM      6  C   UNL     1     -44.683 -14.365 -27.436  0.00  0.00    +0.000 A 
ATOM      7  C   UNL     1     -44.269 -13.687 -28.709  0.00  0.00    +0.000 C 
ATOM      8  C   UNL     1     -45.422 -13.623 -29.703  0.00  0.00    +0.000 C 
ATOM      9  C   UNL     1     -46.329 -12.427 -29.441  0.00  0.00    +0.000 C 
ATOM     10  C   UNL     1     -47.279 -12.715 -28.289  0.00  0.00    +0.000 C 
ATOM     11  C   UNL     1     -46.902 -11.929 -27.034  0.00  0.00    +0.000 C 
ATOM     12  C   UNL     1     -45.483 -12.222 -26.547  0.00  0.00    +0.000 C 
ATOM     13  C   UNL     1     -45.822 -16.388 -23.982  0.00  0.00    +0.000 A 
ATOM     14  C   UNL     1     -45.615 -17.767 -23.903  0.00  0.00    +0.000 A 
ATOM     15  O   UNL     1     -46.159 -13.653 -24.308  0.00  0.00    +0.000 OA
ATOM     16  N   UNL     1     -45.255 -13.663 -26.405  0.00  0.00    +0.000 N 
ATOM     17  N   UNL     1     -44.500 -15.707 -27.329  0.00  0.00    +0.000 NA
ENDROOT
BRANCH   1  18
ATOM     18  C   UNL     1     -44.818 -19.923 -24.899  0.00  0.00    +0.000 C 
ATOM     19  O   UNL     1     -45.481 -20.676 -25.661  0.00  0.00    +0.000 OA
ATOM     20  N   UNL     1     -43.926 -20.525 -23.948  0.00  0.00    +0.000 NA
BRANCH  20  22
ATOM     21  C   UNL     1     -42.427 -19.712 -22.186  0.00  0.00    +0.000 A 
ATOM     22  C   UNL     1     -42.654 -20.001 -23.541  0.00  0.00    +0.000 A 
ATOM     23  C   UNL     1     -41.615 -19.828 -24.469  0.00  0.00    +0.000 A 
ATOM     24  C   UNL     1     -40.365 -19.343 -24.068  0.00  0.00    +0.000 A 
ATOM     25  C   UNL     1     -40.150 -19.043 -22.716  0.00  0.00    +0.000 A 
ATOM     26  C   UNL     1     -41.172 -19.228 -21.782  0.00  0.00    +0.000 A 
BRANCH  24  29
ATOM     27  O   UNL     1     -38.604 -17.982 -25.060  0.00  0.00    +0.000 OA
ATOM     28  O   UNL     1     -39.045 -20.057 -25.852  0.00  0.00    +0.000 OA
ATOM     29  N   UNL     1     -39.321 -19.156 -25.033  0.00  0.00    +0.000 N 
ENDBRANCH  24  29
BRANCH  21  31
ATOM     30  C   UNL     1     -44.168 -18.835 -20.659  0.00  0.00    +0.000 C 
ATOM     31  O   UNL     1     -43.458 -19.909 -21.261  0.00  0.00    +0.000 OA
ENDBRANCH  21  31
ENDBRANCH  20  22
ENDBRANCH   1  18
TORSDOF 4
ENDMDL
MODEL 3
REMARK VINA RESULT:      -6.5      9.317     13.571
REMARK  Name = ZINC000012772569 CSC027018696 MCULE-2308435649 MolPort-005-665-378
REMARK  4 active torsions:
REMARK  status: ('A' for Active; 'I' for Inactive)
REMARK    1  A    between atoms: C_2  and  O_23
REMARK    2  A    between atoms: C_3  and  N_28
REMARK    3  A    between atoms: C_4  and  C_5
REMARK    4  A    between atoms: C_20  and  N_31
REMARK                            x       y       z     vdW  Elec       q    Type
REMARK                         _______ _______ _______ _____ _____    ______ ____
ROOT
ATOM      1  C   UNL     1     -44.964 -18.652 -23.613  0.00  0.00    +0.000 A 
ATOM      2  C   UNL     1     -44.007 -19.540 -23.100  0.00  0.00    +0.000 A 
ATOM      3  C   UNL     1     -43.634 -19.480 -21.756  0.00  0.00    +0.000 A 
ATOM      4  C   UNL     1     -44.212 -18.518 -20.907  0.00  0.00    +0.000 A 
ATOM      5  C   UNL     1     -43.810 -18.488 -19.565  0.00  0.00    +0.000 A 
ATOM      6  C   UNL     1     -42.338 -20.314 -19.962  0.00  0.00    +0.000 A 
ATOM      7  C   UNL     1     -41.307 -21.297 -19.492  0.00  0.00    +0.000 C 
ATOM      8  C   UNL     1     -39.901 -20.721 -19.605  0.00  0.00    +0.000 C 
ATOM      9  C   UNL     1     -39.540 -19.869 -18.394  0.00  0.00    +0.000 C 
ATOM     10  C   UNL     1     -40.164 -18.486 -18.506  0.00  0.00    +0.000 C 
ATOM     11  C   UNL     1     -41.320 -18.304 -17.524  0.00  0.00    +0.000 C 
ATOM     12  C   UNL     1     -42.436 -19.332 -17.715  0.00  0.00    +0.000 C 
ATOM     13  C   UNL     1     -45.157 -17.621 -21.419  0.00  0.00    +0.000 A 
ATOM     14  C   UNL     1     -45.526 -17.686 -22.765  0.00  0.00    +0.000 A 
ATOM     15  O   UNL     1     -44.309 -17.634 -18.777  0.00  0.00    +0.000 OA
ATOM     16  N   UNL     1     -42.878 -19.383 -19.111  0.00  0.00    +0.000 N 
ATOM     17  N   UNL     1     -42.716 -20.347 -21.266  0.00  0.00    +0.000 NA
ENDROOT
BRANCH   1  18
ATOM     18  C   UNL     1     -45.336 -18.713 -25.042  0.00  0.00    +0.000 C 
ATOM     19  O   UNL     1     -46.146 -19.596 -25.431  0.00  0.00    +0.000 OA
ATOM     20  N   UNL     1     -44.762 -17.831 -26.018  0.00  0.00    +0.000 NA
BRANCH  20  22
ATOM     21  C   UNL     1     -43.143 -16.059 -25.515  0.00  0.00    +0.000 A 
ATOM     22  C   UNL     1     -44.458 -16.442 -25.821  0.00  0.00    +0.000 A 
ATOM     23  C   UNL     1     -45.446 -15.459 -25.987  0.00  0.00    +0.000 A 
ATOM     24  C   UNL     1     -45.144 -14.102 -25.822  0.00  0.00    +0.000 A 
ATOM     25  C   UNL     1     -43.832 -13.727 -25.502  0.00  0.00    +0.000 A 
ATOM     26  C   UNL     1     -42.839 -14.698 -25.353  0.00  0.00    +0.000 A 
BRANCH  24  29
ATOM     27  O   UNL     1     -46.257 -12.059 -25.096  0.00  0.00    +0.000 OA
ATOM     28  O   UNL     1     -46.988 -13.188 -26.917  0.00  0.00    +0.000 OA
ATOM     29  N   UNL     1     -46.169 -13.112 -25.978  0.00  0.00    +0.000 N 
ENDBRANCH  24  29
BRANCH  21  31
ATOM     30  C   UNL     1     -40.843 -16.754 -24.916  0.00  0.00    +0.000 C 
ATOM     31  O   UNL     1     -42.157 -17.042 -25.375  0.00  0.00    +0.000 OA
ENDBRANCH  21  31
ENDBRANCH  20  22
ENDBRANCH   1  18
TORSDOF 4
ENDMDL
