MODEL 1
REMARK VINA RESULT:      -6.2      0.000      0.000
REMARK  Name = ZINC000253420118 PubChem-124883398
REMARK  7 active torsions:
REMARK  status: ('A' for Active; 'I' for Inactive)
REMARK    1  A    between atoms: C_2  and  C_16
REMARK    2  A    between atoms: C_2  and  N_22
REMARK    3  A    between atoms: C_3  and  C_4
REMARK    4  A    between atoms: C_4  and  C_5
REMARK    5  A    between atoms: C_5  and  C_6
REMARK    6  A    between atoms: C_5  and  N_23
REMARK    7  A    between atoms: C_16  and  N_24
REMARK                            x       y       z     vdW  Elec       q    Type
REMARK                         _______ _______ _______ _____ _____    ______ ____
ROOT
ATOM      1  C   UNL     1     -46.324  -6.186 -29.008  0.00  0.00    +0.000 C 
ENDROOT
BRANCH   1   2
ATOM      2  C   UNL     1     -46.650  -5.375 -27.777  0.00  0.00    +0.000 A 
ATOM      3  C   UNL     1     -47.155  -4.068 -27.869  0.00  0.00    +0.000 A 
ATOM      4  C   UNL     1     -47.436  -3.340 -26.711  0.00  0.00    +0.000 A 
ATOM      5  C   UNL     1     -47.209  -3.904 -25.452  0.00  0.00    +0.000 A 
ATOM      6  C   UNL     1     -46.694  -5.209 -25.354  0.00  0.00    +0.000 A 
ATOM      7  C   UNL     1     -46.414  -5.933 -26.517  0.00  0.00    +0.000 A 
ATOM      8 CL   UNL     1     -47.581  -2.953 -24.024  0.00  0.00    +0.000 Cl
ATOM      9 CL   UNL     1     -46.391  -5.962 -23.796  0.00  0.00    +0.000 Cl
ENDBRANCH   1   2
BRANCH   1  14
ATOM     10  C   UNL     1     -44.809  -8.056 -29.424  0.00  0.00    +0.000 C 
ATOM     11  C   UNL     1     -44.633  -9.564 -29.223  0.00  0.00    +0.000 C 
ATOM     12  C   UNL     1     -46.858  -9.906 -29.001  0.00  0.00    +0.000 C 
ATOM     13  C   UNL     1     -47.182  -8.421 -29.187  0.00  0.00    +0.000 C 
ATOM     14  N   UNL     1     -46.040  -7.611 -28.752  0.00  0.00    +0.000 NA
ATOM     15  O   UNL     1     -45.733 -10.245 -29.777  0.00  0.00    +0.000 OA
ENDBRANCH   1  14
BRANCH   1  16
ATOM     16  C   UNL     1     -47.368  -5.997 -30.108  0.00  0.00    +0.000 C 
BRANCH  16  17
ATOM     17  C   UNL     1     -46.727  -5.510 -31.362  0.00  0.00    +0.000 C 
ATOM     18  N   UNL     1     -46.405  -4.125 -31.497  0.00  0.00    +0.000 NA
ATOM     19  O   UNL     1     -46.491  -6.321 -32.297  0.00  0.00    +0.000 OA
BRANCH  18  21
ATOM     20  C   UNL     1     -46.987  -3.138 -33.640  0.00  0.00    +0.000 C 
ATOM     21  C   UNL     1     -45.851  -3.558 -32.720  0.00  0.00    +0.000 C 
BRANCH  21  22
ATOM     22  C   UNL     1     -44.967  -2.351 -32.383  0.00  0.00    +0.000 C 
ATOM     23  C   UNL     1     -45.344  -1.745 -31.026  0.00  0.00    +0.000 C 
BRANCH  22  28
ATOM     24  C   UNL     1     -43.318  -3.494 -33.687  0.00  0.00    +0.000 C 
ATOM     25  C   UNL     1     -41.819  -3.663 -33.977  0.00  0.00    +0.000 C 
ATOM     26  C   UNL     1     -41.226  -1.847 -32.780  0.00  0.00    +0.000 C 
ATOM     27  C   UNL     1     -42.690  -1.490 -32.476  0.00  0.00    +0.000 C 
ATOM     28  N   UNL     1     -43.538  -2.694 -32.474  0.00  0.00    +0.000 NA
ATOM     29  O   UNL     1     -41.051  -3.240 -32.877  0.00  0.00    +0.000 OA
ENDBRANCH  22  28
ENDBRANCH  21  22
ENDBRANCH  18  21
ENDBRANCH  16  17
ENDBRANCH   1  16
TORSDOF 7
ENDMDL
MODEL 2
REMARK VINA RESULT:      -5.9      3.894      6.747
REMARK  Name = ZINC000253420118 PubChem-124883398
REMARK  7 active torsions:
REMARK  status: ('A' for Active; 'I' for Inactive)
REMARK    1  A    between atoms: C_2  and  C_16
REMARK    2  A    between atoms: C_2  and  N_22
REMARK    3  A    between atoms: C_3  and  C_4
REMARK    4  A    between atoms: C_4  and  C_5
REMARK    5  A    between atoms: C_5  and  C_6
REMARK    6  A    between atoms: C_5  and  N_23
REMARK    7  A    between atoms: C_16  and  N_24
REMARK                            x       y       z     vdW  Elec       q    Type
REMARK                         _______ _______ _______ _____ _____    ______ ____
ROOT
ATOM      1  C   UNL     1     -45.354  -4.016 -32.082  0.00  0.00    +0.000 C 
ENDROOT
BRANCH   1   2
ATOM      2  C   UNL     1     -44.273  -2.980 -32.277  0.00  0.00    +0.000 A 
ATOM      3  C   UNL     1     -44.551  -1.606 -32.214  0.00  0.00    +0.000 A 
ATOM      4  C   UNL     1     -43.530  -0.673 -32.410  0.00  0.00    +0.000 A 
ATOM      5  C   UNL     1     -42.226  -1.101 -32.678  0.00  0.00    +0.000 A 
ATOM      6  C   UNL     1     -41.944  -2.476 -32.751  0.00  0.00    +0.000 A 
ATOM      7  C   UNL     1     -42.970  -3.406 -32.554  0.00  0.00    +0.000 A 
ATOM      8 CL   UNL     1     -40.974   0.108 -32.914  0.00  0.00    +0.000 Cl
ATOM      9 CL   UNL     1     -40.323  -3.065 -33.085  0.00  0.00    +0.000 Cl
ENDBRANCH   1   2
BRANCH   1  14
ATOM     10  C   UNL     1     -45.234  -5.439 -30.100  0.00  0.00    +0.000 C 
ATOM     11  C   UNL     1     -45.810  -5.643 -28.697  0.00  0.00    +0.000 C 
ATOM     12  C   UNL     1     -47.698  -4.498 -29.185  0.00  0.00    +0.000 C 
ATOM     13  C   UNL     1     -47.248  -4.218 -30.621  0.00  0.00    +0.000 C 
ATOM     14  N   UNL     1     -45.784  -4.205 -30.683  0.00  0.00    +0.000 NA
ATOM     15  O   UNL     1     -47.211  -5.753 -28.773  0.00  0.00    +0.000 OA
ENDBRANCH   1  14
BRANCH   1  16
ATOM     16  C   UNL     1     -46.537  -3.788 -33.021  0.00  0.00    +0.000 C 
BRANCH  16  17
ATOM     17  C   UNL     1     -46.670  -4.919 -33.982  0.00  0.00    +0.000 C 
ATOM     18  N   UNL     1     -45.858  -6.083 -33.817  0.00  0.00    +0.000 NA
ATOM     19  O   UNL     1     -47.483  -4.831 -34.941  0.00  0.00    +0.000 OA
BRANCH  18  21
ATOM     20  C   UNL     1     -44.441  -7.537 -35.153  0.00  0.00    +0.000 C 
ATOM     21  C   UNL     1     -45.871  -7.196 -34.757  0.00  0.00    +0.000 C 
BRANCH  21  22
ATOM     22  C   UNL     1     -46.549  -8.413 -34.118  0.00  0.00    +0.000 C 
ATOM     23  C   UNL     1     -46.278  -9.690 -34.922  0.00  0.00    +0.000 C 
BRANCH  22  28
ATOM     24  C   UNL     1     -47.397  -8.470 -31.881  0.00  0.00    +0.000 C 
ATOM     25  C   UNL     1     -47.112  -8.860 -30.422  0.00  0.00    +0.000 C 
ATOM     26  C   UNL     1     -45.252 -10.026 -30.936  0.00  0.00    +0.000 C 
ATOM     27  C   UNL     1     -45.449  -9.799 -32.443  0.00  0.00    +0.000 C 
ATOM     28  N   UNL     1     -46.179  -8.546 -32.699  0.00  0.00    +0.000 NA
ATOM     29  O   UNL     1     -45.727  -8.931 -30.190  0.00  0.00    +0.000 OA
ENDBRANCH  22  28
ENDBRANCH  21  22
ENDBRANCH  18  21
ENDBRANCH  16  17
ENDBRANCH   1  16
TORSDOF 7
ENDMDL
MODEL 3
REMARK VINA RESULT:      -5.9     10.342     14.092
REMARK  Name = ZINC000253420118 PubChem-124883398
REMARK  7 active torsions:
REMARK  status: ('A' for Active; 'I' for Inactive)
REMARK    1  A    between atoms: C_2  and  C_16
REMARK    2  A    between atoms: C_2  and  N_22
REMARK    3  A    between atoms: C_3  and  C_4
REMARK    4  A    between atoms: C_4  and  C_5
REMARK    5  A    between atoms: C_5  and  C_6
REMARK    6  A    between atoms: C_5  and  N_23
REMARK    7  A    between atoms: C_16  and  N_24
REMARK                            x       y       z     vdW  Elec       q    Type
REMARK                         _______ _______ _______ _____ _____    ______ ____
ROOT
ATOM      1  C   UNL     1     -44.140 -19.011 -22.507  0.00  0.00    +0.000 C 
ENDROOT
BRANCH   1   2
ATOM      2  C   UNL     1     -45.010 -18.363 -21.457  0.00  0.00    +0.000 A 
ATOM      3  C   UNL     1     -45.883 -19.117 -20.657  0.00  0.00    +0.000 A 
ATOM      4  C   UNL     1     -46.683 -18.485 -19.702  0.00  0.00    +0.000 A 
ATOM      5  C   UNL     1     -46.626 -17.097 -19.541  0.00  0.00    +0.000 A 
ATOM      6  C   UNL     1     -45.761 -16.336 -20.347  0.00  0.00    +0.000 A 
ATOM      7  C   UNL     1     -44.962 -16.974 -21.302  0.00  0.00    +0.000 A 
ATOM      8 CL   UNL     1     -47.647 -16.348 -18.326  0.00  0.00    +0.000 Cl
ATOM      9 CL   UNL     1     -45.653 -14.591 -20.185  0.00  0.00    +0.000 Cl
ENDBRANCH   1   2
BRANCH   1  14
ATOM     10  C   UNL     1     -42.020 -19.260 -21.320  0.00  0.00    +0.000 C 
ATOM     11  C   UNL     1     -40.956 -20.280 -20.905  0.00  0.00    +0.000 C 
ATOM     12  C   UNL     1     -41.537 -21.721 -22.548  0.00  0.00    +0.000 C 
ATOM     13  C   UNL     1     -42.639 -20.798 -23.072  0.00  0.00    +0.000 C 
ATOM     14  N   UNL     1     -43.136 -19.956 -21.980  0.00  0.00    +0.000 NA
ATOM     15  O   UNL     1     -40.473 -20.949 -22.045  0.00  0.00    +0.000 OA
ENDBRANCH   1  14
BRANCH   1  16
ATOM     16  C   UNL     1     -44.969 -19.623 -23.635  0.00  0.00    +0.000 C 
BRANCH  16  17
ATOM     17  C   UNL     1     -45.588 -18.555 -24.470  0.00  0.00    +0.000 C 
ATOM     18  N   UNL     1     -44.932 -17.293 -24.599  0.00  0.00    +0.000 NA
ATOM     19  O   UNL     1     -46.692 -18.769 -25.039  0.00  0.00    +0.000 OA
BRANCH  18  21
ATOM     20  C   UNL     1     -46.348 -15.329 -24.379  0.00  0.00    +0.000 C 
ATOM     21  C   UNL     1     -45.510 -16.172 -25.330  0.00  0.00    +0.000 C 
BRANCH  21  22
ATOM     22  C   UNL     1     -44.396 -15.323 -25.951  0.00  0.00    +0.000 C 
ATOM     23  C   UNL     1     -43.041 -16.036 -25.874  0.00  0.00    +0.000 C 
BRANCH  22  28
ATOM     24  C   UNL     1     -45.865 -13.962 -27.260  0.00  0.00    +0.000 C 
ATOM     25  C   UNL     1     -46.104 -13.295 -28.623  0.00  0.00    +0.000 C 
ATOM     26  C   UNL     1     -44.010 -13.693 -29.358  0.00  0.00    +0.000 C 
ATOM     27  C   UNL     1     -43.588 -14.310 -28.014  0.00  0.00    +0.000 C 
ATOM     28  N   UNL     1     -44.742 -14.907 -27.320  0.00  0.00    +0.000 NA
ATOM     29  O   UNL     1     -45.367 -13.946 -29.629  0.00  0.00    +0.000 OA
ENDBRANCH  22  28
ENDBRANCH  21  22
ENDBRANCH  18  21
ENDBRANCH  16  17
ENDBRANCH   1  16
TORSDOF 7
ENDMDL
