MODEL 1
REMARK VINA RESULT:      -6.4      0.000      0.000
REMARK  Name = ZINC000096181314 ZINC96181314 PubChem-97457186
REMARK  3 active torsions:
REMARK  status: ('A' for Active; 'I' for Inactive)
REMARK    1  A    between atoms: C_5  and  C_8
REMARK    2  A    between atoms: C_9  and  C_13
REMARK    3  A    between atoms: C_14  and  N_23
REMARK                            x       y       z     vdW  Elec       q    Type
REMARK                         _______ _______ _______ _____ _____    ______ ____
ROOT
ATOM      1  C   UNL     1     -45.632  -6.435 -28.907  0.00  0.00    +0.000 C 
ATOM      2  C   UNL     1     -44.099  -6.565 -28.832  0.00  0.00    +0.000 C 
ATOM      3  C   UNL     1     -43.743  -8.040 -29.060  0.00  0.00    +0.000 C 
ATOM      4  C   UNL     1     -45.062  -8.689 -29.188  0.00  0.00    +0.000 C 
ATOM      5  C   UNL     1     -47.517  -8.100 -29.410  0.00  0.00    +0.000 C 
ATOM      6  O   UNL     1     -45.218  -9.921 -29.395  0.00  0.00    +0.000 OA
ATOM      7  N   UNL     1     -46.139  -7.784 -29.073  0.00  0.00    +0.000 N 
ENDROOT
BRANCH   1  12
ATOM      8  C   UNL     1     -47.735  -3.916 -24.143  0.00  0.00    +0.000 C 
ATOM      9  C   UNL     1     -47.193  -4.570 -25.362  0.00  0.00    +0.000 A 
ATOM     10  C   UNL     1     -47.366  -3.969 -26.612  0.00  0.00    +0.000 A 
ATOM     11  C   UNL     1     -46.857  -4.583 -27.760  0.00  0.00    +0.000 A 
ATOM     12  C   UNL     1     -46.175  -5.801 -27.663  0.00  0.00    +0.000 A 
ATOM     13  C   UNL     1     -46.000  -6.400 -26.405  0.00  0.00    +0.000 A 
ATOM     14  C   UNL     1     -46.510  -5.785 -25.258  0.00  0.00    +0.000 A 
ENDBRANCH   1  12
BRANCH   2  15
ATOM     15  C   UNL     1     -43.447  -5.698 -29.858  0.00  0.00    +0.000 C 
ATOM     16  O   UNL     1     -42.198  -5.544 -29.820  0.00  0.00    +0.000 OA
ATOM     17  N   UNL     1     -44.244  -5.054 -30.863  0.00  0.00    +0.000 NA
BRANCH  17  18
ATOM     18  C   UNL     1     -43.779  -4.188 -31.906  0.00  0.00    +0.000 A 
ATOM     19  C   UNL     1     -43.113  -4.684 -33.036  0.00  0.00    +0.000 A 
ATOM     20  C   UNL     1     -42.678  -3.799 -34.024  0.00  0.00    +0.000 A 
ATOM     21  C   UNL     1     -42.908  -2.431 -33.879  0.00  0.00    +0.000 A 
ATOM     22  C   UNL     1     -43.573  -1.968 -32.742  0.00  0.00    +0.000 A 
ATOM     23  C   UNL     1     -43.826  -0.515 -32.569  0.00  0.00    +0.000 C 
ATOM     24  N   UNL     1     -43.989  -2.848 -31.791  0.00  0.00    +0.000 NA
ENDBRANCH  17  18
ENDBRANCH   2  15
TORSDOF 3
ENDMDL
MODEL 2
REMARK VINA RESULT:      -6.3      2.721      7.219
REMARK  Name = ZINC000096181314 ZINC96181314 PubChem-97457186
REMARK  3 active torsions:
REMARK  status: ('A' for Active; 'I' for Inactive)
REMARK    1  A    between atoms: C_5  and  C_8
REMARK    2  A    between atoms: C_9  and  C_13
REMARK    3  A    between atoms: C_14  and  N_23
REMARK                            x       y       z     vdW  Elec       q    Type
REMARK                         _______ _______ _______ _____ _____    ______ ____
ROOT
ATOM      1  C   UNL     1     -45.063  -4.286 -32.332  0.00  0.00    +0.000 C 
ATOM      2  C   UNL     1     -46.424  -3.744 -31.854  0.00  0.00    +0.000 C 
ATOM      3  C   UNL     1     -47.473  -4.120 -32.909  0.00  0.00    +0.000 C 
ATOM      4  C   UNL     1     -46.675  -4.790 -33.954  0.00  0.00    +0.000 C 
ATOM      5  C   UNL     1     -44.338  -5.679 -34.360  0.00  0.00    +0.000 C 
ATOM      6  O   UNL     1     -47.167  -5.265 -35.011  0.00  0.00    +0.000 OA
ATOM      7  N   UNL     1     -45.301  -4.860 -33.643  0.00  0.00    +0.000 N 
ENDROOT
BRANCH   1  12
ATOM      8  C   UNL     1     -41.187  -0.002 -32.629  0.00  0.00    +0.000 C 
ATOM      9  C   UNL     1     -42.176  -1.108 -32.549  0.00  0.00    +0.000 A 
ATOM     10  C   UNL     1     -43.527  -0.856 -32.810  0.00  0.00    +0.000 A 
ATOM     11  C   UNL     1     -44.459  -1.895 -32.736  0.00  0.00    +0.000 A 
ATOM     12  C   UNL     1     -44.045  -3.189 -32.398  0.00  0.00    +0.000 A 
ATOM     13  C   UNL     1     -42.688  -3.438 -32.139  0.00  0.00    +0.000 A 
ATOM     14  C   UNL     1     -41.757  -2.398 -32.214  0.00  0.00    +0.000 A 
ENDBRANCH   1  12
BRANCH   2  15
ATOM     15  C   UNL     1     -46.780  -4.319 -30.523  0.00  0.00    +0.000 C 
ATOM     16  O   UNL     1     -47.756  -3.835 -29.893  0.00  0.00    +0.000 OA
ATOM     17  N   UNL     1     -46.011  -5.405 -29.983  0.00  0.00    +0.000 NA
BRANCH  17  18
ATOM     18  C   UNL     1     -46.214  -6.058 -28.723  0.00  0.00    +0.000 A 
ATOM     19  C   UNL     1     -46.171  -5.354 -27.511  0.00  0.00    +0.000 A 
ATOM     20  C   UNL     1     -46.374  -6.035 -26.310  0.00  0.00    +0.000 A 
ATOM     21  C   UNL     1     -46.616  -7.409 -26.325  0.00  0.00    +0.000 A 
ATOM     22  C   UNL     1     -46.652  -8.081 -27.548  0.00  0.00    +0.000 A 
ATOM     23  C   UNL     1     -46.909  -9.544 -27.584  0.00  0.00    +0.000 C 
ATOM     24  N   UNL     1     -46.452  -7.398 -28.707  0.00  0.00    +0.000 NA
ENDBRANCH  17  18
ENDBRANCH   2  15
TORSDOF 3
ENDMDL
MODEL 3
REMARK VINA RESULT:      -6.2      1.715      1.934
REMARK  Name = ZINC000096181314 ZINC96181314 PubChem-97457186
REMARK  3 active torsions:
REMARK  status: ('A' for Active; 'I' for Inactive)
REMARK    1  A    between atoms: C_5  and  C_8
REMARK    2  A    between atoms: C_9  and  C_13
REMARK    3  A    between atoms: C_14  and  N_23
REMARK                            x       y       z     vdW  Elec       q    Type
REMARK                         _______ _______ _______ _____ _____    ______ ____
ROOT
ATOM      1  C   UNL     1     -46.135  -6.682 -27.713  0.00  0.00    +0.000 C 
ATOM      2  C   UNL     1     -44.719  -6.351 -28.221  0.00  0.00    +0.000 C 
ATOM      3  C   UNL     1     -43.903  -7.651 -28.210  0.00  0.00    +0.000 C 
ATOM      4  C   UNL     1     -44.846  -8.636 -27.647  0.00  0.00    +0.000 C 
ATOM      5  C   UNL     1     -47.289  -8.863 -27.015  0.00  0.00    +0.000 C 
ATOM      6  O   UNL     1     -44.566  -9.851 -27.473  0.00  0.00    +0.000 OA
ATOM      7  N   UNL     1     -46.106  -8.082 -27.336  0.00  0.00    +0.000 N 
ENDROOT
BRANCH   1  12
ATOM      8  C   UNL     1     -47.545  -3.266 -23.262  0.00  0.00    +0.000 C 
ATOM      9  C   UNL     1     -47.181  -4.150 -24.399  0.00  0.00    +0.000 A 
ATOM     10  C   UNL     1     -47.403  -3.725 -25.713  0.00  0.00    +0.000 A 
ATOM     11  C   UNL     1     -47.061  -4.555 -26.784  0.00  0.00    +0.000 A 
ATOM     12  C   UNL     1     -46.499  -5.814 -26.547  0.00  0.00    +0.000 A 
ATOM     13  C   UNL     1     -46.275  -6.237 -25.227  0.00  0.00    +0.000 A 
ATOM     14  C   UNL     1     -46.618  -5.406 -24.157  0.00  0.00    +0.000 A 
ENDBRANCH   1  12
BRANCH   2  15
ATOM     15  C   UNL     1     -44.776  -5.772 -29.596  0.00  0.00    +0.000 C 
ATOM     16  O   UNL     1     -44.037  -6.259 -30.492  0.00  0.00    +0.000 OA
ATOM     17  N   UNL     1     -45.662  -4.678 -29.877  0.00  0.00    +0.000 NA
BRANCH  17  18
ATOM     18  C   UNL     1     -45.828  -4.006 -31.132  0.00  0.00    +0.000 A 
ATOM     19  C   UNL     1     -46.802  -4.404 -32.059  0.00  0.00    +0.000 A 
ATOM     20  C   UNL     1     -46.924  -3.717 -33.268  0.00  0.00    +0.000 A 
ATOM     21  C   UNL     1     -46.076  -2.644 -33.544  0.00  0.00    +0.000 A 
ATOM     22  C   UNL     1     -45.116  -2.274 -32.601  0.00  0.00    +0.000 A 
ATOM     23  C   UNL     1     -44.204  -1.134 -32.878  0.00  0.00    +0.000 C 
ATOM     24  N   UNL     1     -45.015  -2.956 -31.428  0.00  0.00    +0.000 NA
ENDBRANCH  17  18
ENDBRANCH   2  15
TORSDOF 3
ENDMDL
