MODEL 1
REMARK VINA RESULT:      -6.4      0.000      0.000
REMARK  Name = ZINC000223871494 PubChem-100324810
REMARK  5 active torsions:
REMARK  status: ('A' for Active; 'I' for Inactive)
REMARK    1  A    between atoms: C_9  and  C_10
REMARK    2  A    between atoms: C_11  and  C_13
REMARK    3  A    between atoms: C_11  and  N_22
REMARK    4  A    between atoms: C_16  and  S_29
REMARK    5  A    between atoms: N_21  and  S_30
REMARK                            x       y       z     vdW  Elec       q    Type
REMARK                         _______ _______ _______ _____ _____    ______ ____
ROOT
ATOM      1  C   UNL     1     -46.097 -16.899 -19.412  0.00  0.00    +0.000 C 
ATOM      2  C   UNL     1     -45.703 -17.191 -20.815  0.00  0.00    +0.000 A 
ATOM      3  C   UNL     1     -45.883 -16.221 -21.806  0.00  0.00    +0.000 A 
ATOM      4  C   UNL     1     -45.517 -16.495 -23.126  0.00  0.00    +0.000 A 
ATOM      5  C   UNL     1     -44.951 -17.739 -23.458  0.00  0.00    +0.000 A 
ATOM      6  C   UNL     1     -44.780 -18.709 -22.461  0.00  0.00    +0.000 A 
ATOM      7  C   UNL     1     -45.157 -18.435 -21.143  0.00  0.00    +0.000 A 
ATOM      8  C   UNL     1     -44.419 -16.833 -25.726  0.00  0.00    +0.000 C 
ATOM      9  C   UNL     1     -45.584 -15.869 -25.510  0.00  0.00    +0.000 C 
ATOM     10  N   UNL     1     -44.546 -17.973 -24.820  0.00  0.00    +0.000 N 
ATOM     11  O   UNL     1     -45.710 -15.535 -24.125  0.00  0.00    +0.000 OA
ENDROOT
BRANCH  10  15
ATOM     12  C   UNL     1     -43.524 -19.475 -27.046  0.00  0.00    +0.000 C 
ATOM     13  O   UNL     1     -43.309 -20.300 -24.516  0.00  0.00    +0.000 OA
ATOM     14  O   UNL     1     -45.551 -20.331 -25.497  0.00  0.00    +0.000 OA
ATOM     15  S   UNL     1     -44.256 -19.572 -25.428  0.00  0.00    +0.000 S 
ENDBRANCH  10  15
BRANCH   9  16
ATOM     16  C   UNL     1     -45.413 -14.644 -26.347  0.00  0.00    +0.000 C 
ATOM     17  N   UNL     1     -46.233 -13.501 -26.089  0.00  0.00    +0.000 NA
ATOM     18  O   UNL     1     -44.561 -14.619 -27.277  0.00  0.00    +0.000 OA
BRANCH  17  19
ATOM     19  C   UNL     1     -46.159 -12.281 -26.882  0.00  0.00    +0.000 C 
ATOM     20  C   UNL     1     -47.237 -12.282 -27.954  0.00  0.00    +0.000 C 
BRANCH  19  21
ATOM     21  C   UNL     1     -46.292 -11.083 -25.998  0.00  0.00    +0.000 A 
ATOM     22  C   UNL     1     -47.051  -9.992 -26.437  0.00  0.00    +0.000 A 
ATOM     23  C   UNL     1     -47.184  -8.860 -25.629  0.00  0.00    +0.000 A 
ATOM     24  C   UNL     1     -46.560  -8.811 -24.378  0.00  0.00    +0.000 A 
ATOM     25  C   UNL     1     -45.797  -9.898 -23.939  0.00  0.00    +0.000 A 
ATOM     26  C   UNL     1     -45.662 -11.032 -24.745  0.00  0.00    +0.000 A 
BRANCH  24  30
ATOM     27  C   UNL     1     -47.755  -6.192 -24.186  0.00  0.00    +0.000 C 
ATOM     28  O   UNL     1     -45.363  -6.785 -23.124  0.00  0.00    +0.000 OA
ATOM     29  O   UNL     1     -47.331  -7.760 -22.050  0.00  0.00    +0.000 OA
ATOM     30  S   UNL     1     -46.719  -7.384 -23.370  0.00  0.00    +0.000 S 
ENDBRANCH  24  30
ENDBRANCH  19  21
ENDBRANCH  17  19
ENDBRANCH   9  16
TORSDOF 5
ENDMDL
MODEL 2
REMARK VINA RESULT:      -6.3      3.853      7.060
REMARK  Name = ZINC000223871494 PubChem-100324810
REMARK  5 active torsions:
REMARK  status: ('A' for Active; 'I' for Inactive)
REMARK    1  A    between atoms: C_9  and  C_10
REMARK    2  A    between atoms: C_11  and  C_13
REMARK    3  A    between atoms: C_11  and  N_22
REMARK    4  A    between atoms: C_16  and  S_29
REMARK    5  A    between atoms: N_21  and  S_30
REMARK                            x       y       z     vdW  Elec       q    Type
REMARK                         _______ _______ _______ _____ _____    ______ ____
ROOT
ATOM      1  C   UNL     1     -40.339 -20.358 -29.327  0.00  0.00    +0.000 C 
ATOM      2  C   UNL     1     -41.180 -19.286 -28.734  0.00  0.00    +0.000 A 
ATOM      3  C   UNL     1     -42.116 -19.601 -27.744  0.00  0.00    +0.000 A 
ATOM      4  C   UNL     1     -42.911 -18.594 -27.190  0.00  0.00    +0.000 A 
ATOM      5  C   UNL     1     -42.759 -17.262 -27.612  0.00  0.00    +0.000 A 
ATOM      6  C   UNL     1     -41.824 -16.955 -28.610  0.00  0.00    +0.000 A 
ATOM      7  C   UNL     1     -41.037 -17.966 -29.170  0.00  0.00    +0.000 A 
ATOM      8  C   UNL     1     -44.252 -16.553 -25.736  0.00  0.00    +0.000 C 
ATOM      9  C   UNL     1     -44.851 -17.956 -25.810  0.00  0.00    +0.000 C 
ATOM     10  N   UNL     1     -43.564 -16.243 -26.989  0.00  0.00    +0.000 N 
ATOM     11  O   UNL     1     -43.860 -18.906 -26.211  0.00  0.00    +0.000 OA
ENDROOT
BRANCH  10  15
ATOM     12  C   UNL     1     -45.180 -13.867 -26.966  0.00  0.00    +0.000 C 
ATOM     13  O   UNL     1     -42.559 -13.838 -27.479  0.00  0.00    +0.000 OA
ATOM     14  O   UNL     1     -44.005 -14.829 -29.188  0.00  0.00    +0.000 OA
ATOM     15  S   UNL     1     -43.783 -14.679 -27.709  0.00  0.00    +0.000 S 
ENDBRANCH  10  15
BRANCH   9  16
ATOM     16  C   UNL     1     -45.462 -18.334 -24.500  0.00  0.00    +0.000 C 
ATOM     17  N   UNL     1     -44.911 -17.801 -23.292  0.00  0.00    +0.000 NA
ATOM     18  O   UNL     1     -46.447 -19.120 -24.457  0.00  0.00    +0.000 OA
BRANCH  17  19
ATOM     19  C   UNL     1     -45.420 -18.149 -21.972  0.00  0.00    +0.000 C 
ATOM     20  C   UNL     1     -44.481 -19.128 -21.285  0.00  0.00    +0.000 C 
BRANCH  19  21
ATOM     21  C   UNL     1     -45.594 -16.915 -21.146  0.00  0.00    +0.000 A 
ATOM     22  C   UNL     1     -45.975 -17.039 -19.806  0.00  0.00    +0.000 A 
ATOM     23  C   UNL     1     -46.150 -15.899 -19.017  0.00  0.00    +0.000 A 
ATOM     24  C   UNL     1     -45.944 -14.627 -19.564  0.00  0.00    +0.000 A 
ATOM     25  C   UNL     1     -45.568 -14.500 -20.905  0.00  0.00    +0.000 A 
ATOM     26  C   UNL     1     -45.393 -15.640 -21.696  0.00  0.00    +0.000 A 
BRANCH  24  30
ATOM     27  C   UNL     1     -47.095 -11.984 -19.490  0.00  0.00    +0.000 C 
ATOM     28  O   UNL     1     -44.839 -12.627 -18.189  0.00  0.00    +0.000 OA
ATOM     29  O   UNL     1     -46.927 -13.560 -17.326  0.00  0.00    +0.000 OA
ATOM     30  S   UNL     1     -46.175 -13.197 -18.575  0.00  0.00    +0.000 S 
ENDBRANCH  24  30
ENDBRANCH  19  21
ENDBRANCH  17  19
ENDBRANCH   9  16
TORSDOF 5
ENDMDL
MODEL 3
REMARK VINA RESULT:      -6.1      8.859     11.796
REMARK  Name = ZINC000223871494 PubChem-100324810
REMARK  5 active torsions:
REMARK  status: ('A' for Active; 'I' for Inactive)
REMARK    1  A    between atoms: C_9  and  C_10
REMARK    2  A    between atoms: C_11  and  C_13
REMARK    3  A    between atoms: C_11  and  N_22
REMARK    4  A    between atoms: C_16  and  S_29
REMARK    5  A    between atoms: N_21  and  S_30
REMARK                            x       y       z     vdW  Elec       q    Type
REMARK                         _______ _______ _______ _____ _____    ______ ____
ROOT
ATOM      1  C   UNL     1     -41.449  -7.026 -25.088  0.00  0.00    +0.000 C 
ATOM      2  C   UNL     1     -42.469  -7.331 -26.124  0.00  0.00    +0.000 A 
ATOM      3  C   UNL     1     -42.588  -6.511 -27.249  0.00  0.00    +0.000 A 
ATOM      4  C   UNL     1     -43.550  -6.794 -28.222  0.00  0.00    +0.000 A 
ATOM      5  C   UNL     1     -44.388  -7.915 -28.081  0.00  0.00    +0.000 A 
ATOM      6  C   UNL     1     -44.268  -8.729 -26.946  0.00  0.00    +0.000 A 
ATOM      7  C   UNL     1     -43.311  -8.437 -25.970  0.00  0.00    +0.000 A 
ATOM      8  C   UNL     1     -45.188  -7.547 -30.420  0.00  0.00    +0.000 C 
ATOM      9  C   UNL     1     -44.811  -6.080 -30.216  0.00  0.00    +0.000 C 
ATOM     10  N   UNL     1     -45.339  -8.203 -29.122  0.00  0.00    +0.000 N 
ATOM     11  O   UNL     1     -43.685  -5.968 -29.342  0.00  0.00    +0.000 OA
ENDROOT
BRANCH  10  15
ATOM     12  C   UNL     1     -46.130 -10.951 -28.841  0.00  0.00    +0.000 C 
ATOM     13  O   UNL     1     -47.334  -8.952 -27.543  0.00  0.00    +0.000 OA
ATOM     14  O   UNL     1     -47.700  -9.073 -29.960  0.00  0.00    +0.000 OA
ATOM     15  S   UNL     1     -46.689  -9.263 -28.864  0.00  0.00    +0.000 S 
ENDBRANCH  10  15
BRANCH   9  16
ATOM     16  C   UNL     1     -44.542  -5.422 -31.530  0.00  0.00    +0.000 C 
ATOM     17  N   UNL     1     -44.779  -4.018 -31.670  0.00  0.00    +0.000 NA
ATOM     18  O   UNL     1     -44.118  -6.096 -32.508  0.00  0.00    +0.000 OA
BRANCH  17  19
ATOM     19  C   UNL     1     -44.582  -3.306 -32.925  0.00  0.00    +0.000 C 
ATOM     20  C   UNL     1     -45.795  -2.446 -33.241  0.00  0.00    +0.000 C 
BRANCH  19  21
ATOM     21  C   UNL     1     -43.345  -2.469 -32.853  0.00  0.00    +0.000 A 
ATOM     22  C   UNL     1     -42.098  -3.076 -33.042  0.00  0.00    +0.000 A 
ATOM     23  C   UNL     1     -40.929  -2.315 -32.973  0.00  0.00    +0.000 A 
ATOM     24  C   UNL     1     -40.999  -0.941 -32.715  0.00  0.00    +0.000 A 
ATOM     25  C   UNL     1     -42.243  -0.333 -32.520  0.00  0.00    +0.000 A 
ATOM     26  C   UNL     1     -43.414  -1.093 -32.588  0.00  0.00    +0.000 A 
BRANCH  24  30
ATOM     27  C   UNL     1     -38.134  -1.002 -33.046  0.00  0.00    +0.000 C 
ATOM     28  O   UNL     1     -39.358   0.536 -31.219  0.00  0.00    +0.000 OA
ATOM     29  O   UNL     1     -39.614   1.175 -33.564  0.00  0.00    +0.000 OA
ATOM     30  S   UNL     1     -39.529   0.011 -32.617  0.00  0.00    +0.000 S 
ENDBRANCH  24  30
ENDBRANCH  19  21
ENDBRANCH  17  19
ENDBRANCH   9  16
TORSDOF 5
ENDMDL
