MODEL 1
REMARK VINA RESULT:      -5.6      0.000      0.000
REMARK  Name = ZINC000229790166 PubChem-100856248
REMARK  4 active torsions:
REMARK  status: ('A' for Active; 'I' for Inactive)
REMARK    1  A    between atoms: C_4  and  C_5
REMARK    2  A    between atoms: C_6  and  C_7
REMARK    3  A    between atoms: C_6  and  N_19
REMARK    4  A    between atoms: C_11  and  C_12
REMARK                            x       y       z     vdW  Elec       q    Type
REMARK                         _______ _______ _______ _____ _____    ______ ____
ROOT
ATOM      1  C   UNL     1     -42.713 -17.296 -26.460  0.00  0.00    +0.000 C 
ATOM      2  C   UNL     1     -44.560 -18.952 -25.937  0.00  0.00    +0.000 C 
ATOM      3  C   UNL     1     -45.513 -19.294 -24.864  0.00  0.00    +0.000 C 
ATOM      4  C   UNL     1     -45.373 -18.121 -23.885  0.00  0.00    +0.000 C 
ATOM      5  C   UNL     1     -44.258 -17.200 -24.413  0.00  0.00    +0.000 C 
ATOM      6  N   UNL     1     -43.869 -17.745 -25.700  0.00  0.00    +0.000 N 
ATOM      7  O   UNL     1     -44.365 -19.669 -26.954  0.00  0.00    +0.000 OA
ENDROOT
BRANCH   5   8
ATOM      8  C   UNL     1     -44.746 -15.789 -24.549  0.00  0.00    +0.000 A 
ATOM      9  C   UNL     1     -45.642 -15.474 -25.575  0.00  0.00    +0.000 A 
ATOM     10  C   UNL     1     -46.111 -14.165 -25.723  0.00  0.00    +0.000 A 
ATOM     11  C   UNL     1     -45.682 -13.166 -24.845  0.00  0.00    +0.000 A 
ATOM     12  C   UNL     1     -44.786 -13.474 -23.817  0.00  0.00    +0.000 A 
ATOM     13  C   UNL     1     -44.318 -14.783 -23.669  0.00  0.00    +0.000 A 
ATOM     14  F   UNL     1     -46.137 -11.897 -24.988  0.00  0.00    +0.000 F 
ENDBRANCH   5   8
BRANCH   4  15
ATOM     15  C   UNL     1     -45.045 -18.611 -22.513  0.00  0.00    +0.000 C 
ATOM     16  N   UNL     1     -45.801 -18.158 -21.388  0.00  0.00    +0.000 NA
ATOM     17  O   UNL     1     -44.097 -19.427 -22.360  0.00  0.00    +0.000 OA
BRANCH  16  18
ATOM     18  C   UNL     1     -45.514 -18.610 -20.036  0.00  0.00    +0.000 C 
BRANCH  18  19
ATOM     19  C   UNL     1     -45.769 -17.482 -19.053  0.00  0.00    +0.000 C 
ATOM     20  C   UNL     1     -45.157 -16.205 -19.574  0.00  0.00    +0.000 C 
ATOM     21  C   UNL     1     -46.166 -15.154 -19.223  0.00  0.00    +0.000 C 
ATOM     22  C   UNL     1     -47.280 -15.924 -18.555  0.00  0.00    +0.000 C 
ATOM     23  O   UNL     1     -47.148 -17.279 -18.896  0.00  0.00    +0.000 OA
ENDBRANCH  18  19
ENDBRANCH  16  18
ENDBRANCH   4  15
TORSDOF 4
ENDMDL
MODEL 2
REMARK VINA RESULT:      -5.5      3.030      4.781
REMARK  Name = ZINC000229790166 PubChem-100856248
REMARK  4 active torsions:
REMARK  status: ('A' for Active; 'I' for Inactive)
REMARK    1  A    between atoms: C_4  and  C_5
REMARK    2  A    between atoms: C_6  and  C_7
REMARK    3  A    between atoms: C_6  and  N_19
REMARK    4  A    between atoms: C_11  and  C_12
REMARK                            x       y       z     vdW  Elec       q    Type
REMARK                         _______ _______ _______ _____ _____    ______ ____
ROOT
ATOM      1  C   UNL     1     -42.589 -18.989 -20.420  0.00  0.00    +0.000 C 
ATOM      2  C   UNL     1     -44.696 -19.707 -19.204  0.00  0.00    +0.000 C 
ATOM      3  C   UNL     1     -46.048 -19.215 -18.881  0.00  0.00    +0.000 C 
ATOM      4  C   UNL     1     -46.171 -17.945 -19.733  0.00  0.00    +0.000 C 
ATOM      5  C   UNL     1     -44.821 -17.723 -20.441  0.00  0.00    +0.000 C 
ATOM      6  N   UNL     1     -44.008 -18.879 -20.117  0.00  0.00    +0.000 N 
ATOM      7  O   UNL     1     -44.193 -20.750 -18.707  0.00  0.00    +0.000 OA
ENDROOT
BRANCH   5   8
ATOM      8  C   UNL     1     -45.006 -17.590 -21.922  0.00  0.00    +0.000 A 
ATOM      9  C   UNL     1     -44.892 -16.328 -22.513  0.00  0.00    +0.000 A 
ATOM     10  C   UNL     1     -45.062 -16.179 -23.893  0.00  0.00    +0.000 A 
ATOM     11  C   UNL     1     -45.347 -17.294 -24.686  0.00  0.00    +0.000 A 
ATOM     12  C   UNL     1     -45.463 -18.559 -24.102  0.00  0.00    +0.000 A 
ATOM     13  C   UNL     1     -45.292 -18.707 -22.722  0.00  0.00    +0.000 A 
ATOM     14  F   UNL     1     -45.510 -17.149 -26.024  0.00  0.00    +0.000 F 
ENDBRANCH   5   8
BRANCH   4  15
ATOM     15  C   UNL     1     -46.521 -16.768 -18.884  0.00  0.00    +0.000 C 
ATOM     16  N   UNL     1     -45.503 -15.856 -18.466  0.00  0.00    +0.000 NA
ATOM     17  O   UNL     1     -47.719 -16.589 -18.541  0.00  0.00    +0.000 OA
BRANCH  16  18
ATOM     18  C   UNL     1     -45.800 -14.698 -17.638  0.00  0.00    +0.000 C 
BRANCH  18  19
ATOM     19  C   UNL     1     -45.951 -13.467 -18.512  0.00  0.00    +0.000 C 
ATOM     20  C   UNL     1     -45.200 -13.666 -19.807  0.00  0.00    +0.000 C 
ATOM     21  C   UNL     1     -46.099 -13.059 -20.841  0.00  0.00    +0.000 C 
ATOM     22  C   UNL     1     -47.298 -12.588 -20.052  0.00  0.00    +0.000 C 
ATOM     23  O   UNL     1     -47.303 -13.250 -18.815  0.00  0.00    +0.000 OA
ENDBRANCH  18  19
ENDBRANCH  16  18
ENDBRANCH   4  15
TORSDOF 4
ENDMDL
MODEL 3
REMARK VINA RESULT:      -5.5      3.279      6.591
REMARK  Name = ZINC000229790166 PubChem-100856248
REMARK  4 active torsions:
REMARK  status: ('A' for Active; 'I' for Inactive)
REMARK    1  A    between atoms: C_4  and  C_5
REMARK    2  A    between atoms: C_6  and  C_7
REMARK    3  A    between atoms: C_6  and  N_19
REMARK    4  A    between atoms: C_11  and  C_12
REMARK                            x       y       z     vdW  Elec       q    Type
REMARK                         _______ _______ _______ _____ _____    ______ ____
ROOT
ATOM      1  C   UNL     1     -43.007 -14.613 -20.304  0.00  0.00    +0.000 C 
ATOM      2  C   UNL     1     -45.086 -13.526 -21.266  0.00  0.00    +0.000 C 
ATOM      3  C   UNL     1     -46.183 -13.804 -22.212  0.00  0.00    +0.000 C 
ATOM      4  C   UNL     1     -46.008 -15.296 -22.521  0.00  0.00    +0.000 C 
ATOM      5  C   UNL     1     -44.740 -15.781 -21.795  0.00  0.00    +0.000 C 
ATOM      6  N   UNL     1     -44.284 -14.656 -21.000  0.00  0.00    +0.000 N 
ATOM      7  O   UNL     1     -44.871 -12.394 -20.757  0.00  0.00    +0.000 OA
ENDROOT
BRANCH   5   8
ATOM      8  C   UNL     1     -45.036 -16.968 -20.930  0.00  0.00    +0.000 A 
ATOM      9  C   UNL     1     -44.303 -18.145 -21.113  0.00  0.00    +0.000 A 
ATOM     10  C   UNL     1     -44.562 -19.267 -20.319  0.00  0.00    +0.000 A 
ATOM     11  C   UNL     1     -45.557 -19.214 -19.339  0.00  0.00    +0.000 A 
ATOM     12  C   UNL     1     -46.294 -18.041 -19.151  0.00  0.00    +0.000 A 
ATOM     13  C   UNL     1     -46.034 -16.920 -19.944  0.00  0.00    +0.000 A 
ATOM     14  F   UNL     1     -45.807 -20.301 -18.569  0.00  0.00    +0.000 F 
ENDBRANCH   5   8
BRANCH   4  15
ATOM     15  C   UNL     1     -45.891 -15.523 -23.992  0.00  0.00    +0.000 C 
ATOM     16  N   UNL     1     -44.795 -16.274 -24.519  0.00  0.00    +0.000 NA
ATOM     17  O   UNL     1     -46.767 -15.046 -24.761  0.00  0.00    +0.000 OA
BRANCH  16  18
ATOM     18  C   UNL     1     -44.642 -16.517 -25.944  0.00  0.00    +0.000 C 
BRANCH  18  19
ATOM     19  C   UNL     1     -44.458 -18.002 -26.195  0.00  0.00    +0.000 C 
ATOM     20  C   UNL     1     -43.242 -18.498 -25.450  0.00  0.00    +0.000 C 
ATOM     21  C   UNL     1     -43.661 -19.840 -24.932  0.00  0.00    +0.000 C 
ATOM     22  C   UNL     1     -45.088 -19.985 -25.404  0.00  0.00    +0.000 C 
ATOM     23  O   UNL     1     -45.577 -18.713 -25.737  0.00  0.00    +0.000 OA
ENDBRANCH  18  19
ENDBRANCH  16  18
ENDBRANCH   4  15
TORSDOF 4
ENDMDL
