MODEL 1
REMARK VINA RESULT:      -6.4      0.000      0.000
REMARK  Name = ZINC000036054391 ZINC36054391 PubChem-93152296
REMARK  8 active torsions:
REMARK  status: ('A' for Active; 'I' for Inactive)
REMARK    1  A    between atoms: C_2  and  C_4
REMARK    2  A    between atoms: C_4  and  C_5
REMARK    3  A    between atoms: C_7  and  C_18
REMARK    4  A    between atoms: C_8  and  C_10
REMARK    5  A    between atoms: C_11  and  C_12
REMARK    6  A    between atoms: C_11  and  N_31
REMARK    7  A    between atoms: C_22  and  O_29
REMARK    8  A    between atoms: C_23  and  O_28
REMARK                            x       y       z     vdW  Elec       q    Type
REMARK                         _______ _______ _______ _____ _____    ______ ____
ROOT
ATOM      1  C   UNL     1     -41.007 -18.910 -26.186  0.00  0.00    +0.000 C 
ATOM      2  C   UNL     1     -42.465 -16.853 -25.992  0.00  0.00    +0.000 C 
ATOM      3  C   UNL     1     -43.959 -16.641 -25.818  0.00  0.00    +0.000 C 
ATOM      4  C   UNL     1     -44.644 -17.989 -26.042  0.00  0.00    +0.000 C 
ATOM      5  C   UNL     1     -43.539 -19.020 -26.204  0.00  0.00    +0.000 C 
ATOM      6  O   UNL     1     -39.961 -18.209 -26.148  0.00  0.00    +0.000 OA
ATOM      7  N   UNL     1     -42.294 -18.281 -26.164  0.00  0.00    +0.000 N 
ENDROOT
BRANCH   3   8
ATOM      8  C   UNL     1     -44.492 -15.575 -26.732  0.00  0.00    +0.000 A 
ATOM      9  C   UNL     1     -43.881 -15.441 -27.980  0.00  0.00    +0.000 A 
ATOM     10  C   UNL     1     -44.315 -14.475 -28.883  0.00  0.00    +0.000 A 
ATOM     11  C   UNL     1     -45.369 -13.631 -28.541  0.00  0.00    +0.000 A 
ATOM     12  C   UNL     1     -46.005 -13.739 -27.295  0.00  0.00    +0.000 A 
ATOM     13  C   UNL     1     -45.565 -14.723 -26.371  0.00  0.00    +0.000 A 
BRANCH  13  15
ATOM     14  C   UNL     1     -45.864 -14.111 -23.955  0.00  0.00    +0.000 C 
ATOM     15  O   UNL     1     -46.148 -14.898 -25.102  0.00  0.00    +0.000 OA
ENDBRANCH  13  15
BRANCH  12  17
ATOM     16  C   UNL     1     -46.924 -11.466 -26.917  0.00  0.00    +0.000 C 
ATOM     17  O   UNL     1     -47.062 -12.880 -26.973  0.00  0.00    +0.000 OA
ENDBRANCH  12  17
ENDBRANCH   3   8
BRANCH   4  18
ATOM     18  C   UNL     1     -45.508 -18.335 -24.875  0.00  0.00    +0.000 C 
ATOM     19  O   UNL     1     -46.623 -18.885 -25.073  0.00  0.00    +0.000 OA
ATOM     20  N   UNL     1     -45.065 -18.050 -23.547  0.00  0.00    +0.000 NA
BRANCH  20  21
ATOM     21  C   UNL     1     -45.855 -18.389 -22.376  0.00  0.00    +0.000 C 
BRANCH  21  22
ATOM     22  C   UNL     1     -44.953 -18.836 -21.280  0.00  0.00    +0.000 A 
ATOM     23  C   UNL     1     -43.634 -19.205 -21.566  0.00  0.00    +0.000 A 
ATOM     24  C   UNL     1     -42.777 -19.594 -20.533  0.00  0.00    +0.000 A 
ATOM     25  C   UNL     1     -43.236 -19.609 -19.212  0.00  0.00    +0.000 A 
ATOM     26  C   UNL     1     -44.551 -19.232 -18.924  0.00  0.00    +0.000 A 
ATOM     27  C   UNL     1     -45.409 -18.843 -19.957  0.00  0.00    +0.000 A 
ATOM     28  F   UNL     1     -42.405 -19.987 -18.211  0.00  0.00    +0.000 F 
ENDBRANCH  21  22
ENDBRANCH  20  21
ENDBRANCH   4  18
BRANCH   1  29
ATOM     29  C   UNL     1     -40.892 -20.406 -26.264  0.00  0.00    +0.000 C 
BRANCH  29  31
ATOM     30  C   UNL     1     -39.725 -22.403 -25.247  0.00  0.00    +0.000 C 
ATOM     31  C   UNL     1     -40.347 -21.043 -24.983  0.00  0.00    +0.000 C 
ATOM     32  C   UNL     1     -41.405 -21.141 -23.899  0.00  0.00    +0.000 C 
ENDBRANCH  29  31
ENDBRANCH   1  29
TORSDOF 8
ENDMDL
MODEL 2
REMARK VINA RESULT:      -6.2      3.177      7.758
REMARK  Name = ZINC000036054391 ZINC36054391 PubChem-93152296
REMARK  8 active torsions:
REMARK  status: ('A' for Active; 'I' for Inactive)
REMARK    1  A    between atoms: C_2  and  C_4
REMARK    2  A    between atoms: C_4  and  C_5
REMARK    3  A    between atoms: C_7  and  C_18
REMARK    4  A    between atoms: C_8  and  C_10
REMARK    5  A    between atoms: C_11  and  C_12
REMARK    6  A    between atoms: C_11  and  N_31
REMARK    7  A    between atoms: C_22  and  O_29
REMARK    8  A    between atoms: C_23  and  O_28
REMARK                            x       y       z     vdW  Elec       q    Type
REMARK                         _______ _______ _______ _____ _____    ______ ____
ROOT
ATOM      1  C   UNL     1     -45.257 -13.954 -25.255  0.00  0.00    +0.000 C 
ATOM      2  C   UNL     1     -44.420 -15.631 -23.557  0.00  0.00    +0.000 C 
ATOM      3  C   UNL     1     -44.667 -17.115 -23.341  0.00  0.00    +0.000 C 
ATOM      4  C   UNL     1     -45.836 -17.521 -24.238  0.00  0.00    +0.000 C 
ATOM      5  C   UNL     1     -46.179 -16.309 -25.088  0.00  0.00    +0.000 C 
ATOM      6  O   UNL     1     -44.477 -13.070 -24.810  0.00  0.00    +0.000 OA
ATOM      7  N   UNL     1     -45.309 -15.243 -24.633  0.00  0.00    +0.000 N 
ENDROOT
BRANCH   3   8
ATOM      8  C   UNL     1     -44.918 -17.444 -21.897  0.00  0.00    +0.000 A 
ATOM      9  C   UNL     1     -45.540 -16.466 -21.119  0.00  0.00    +0.000 A 
ATOM     10  C   UNL     1     -45.805 -16.694 -19.772  0.00  0.00    +0.000 A 
ATOM     11  C   UNL     1     -45.447 -17.908 -19.191  0.00  0.00    +0.000 A 
ATOM     12  C   UNL     1     -44.820 -18.912 -19.945  0.00  0.00    +0.000 A 
ATOM     13  C   UNL     1     -44.548 -18.683 -21.320  0.00  0.00    +0.000 A 
BRANCH  13  15
ATOM     14  C   UNL     1     -42.525 -19.867 -22.219  0.00  0.00    +0.000 C 
ATOM     15  O   UNL     1     -43.924 -19.636 -22.145  0.00  0.00    +0.000 OA
ENDBRANCH  13  15
BRANCH  12  17
ATOM     16  C   UNL     1     -43.415 -20.242 -18.393  0.00  0.00    +0.000 C 
ATOM     17  O   UNL     1     -44.469 -20.124 -19.340  0.00  0.00    +0.000 OA
ENDBRANCH  12  17
ENDBRANCH   3   8
BRANCH   4  18
ATOM     18  C   UNL     1     -45.450 -18.671 -25.108  0.00  0.00    +0.000 C 
ATOM     19  O   UNL     1     -46.269 -19.608 -25.294  0.00  0.00    +0.000 OA
ATOM     20  N   UNL     1     -44.163 -18.698 -25.730  0.00  0.00    +0.000 NA
BRANCH  20  21
ATOM     21  C   UNL     1     -43.747 -19.779 -26.606  0.00  0.00    +0.000 C 
BRANCH  21  22
ATOM     22  C   UNL     1     -42.807 -19.254 -27.632  0.00  0.00    +0.000 A 
ATOM     23  C   UNL     1     -42.379 -20.079 -28.678  0.00  0.00    +0.000 A 
ATOM     24  C   UNL     1     -41.521 -19.576 -29.660  0.00  0.00    +0.000 A 
ATOM     25  C   UNL     1     -41.095 -18.246 -29.601  0.00  0.00    +0.000 A 
ATOM     26  C   UNL     1     -41.529 -17.417 -28.562  0.00  0.00    +0.000 A 
ATOM     27  C   UNL     1     -42.388 -17.920 -27.580  0.00  0.00    +0.000 A 
ATOM     28  F   UNL     1     -40.263 -17.759 -30.553  0.00  0.00    +0.000 F 
ENDBRANCH  21  22
ENDBRANCH  20  21
ENDBRANCH   4  18
BRANCH   1  29
ATOM     29  C   UNL     1     -46.134 -13.641 -26.434  0.00  0.00    +0.000 C 
BRANCH  29  31
ATOM     30  C   UNL     1     -44.459 -14.900 -27.847  0.00  0.00    +0.000 C 
ATOM     31  C   UNL     1     -45.399 -13.709 -27.775  0.00  0.00    +0.000 C 
ATOM     32  C   UNL     1     -44.655 -12.422 -28.085  0.00  0.00    +0.000 C 
ENDBRANCH  29  31
ENDBRANCH   1  29
TORSDOF 8
ENDMDL
MODEL 3
REMARK VINA RESULT:      -6.2      1.934      2.651
REMARK  Name = ZINC000036054391 ZINC36054391 PubChem-93152296
REMARK  8 active torsions:
REMARK  status: ('A' for Active; 'I' for Inactive)
REMARK    1  A    between atoms: C_2  and  C_4
REMARK    2  A    between atoms: C_4  and  C_5
REMARK    3  A    between atoms: C_7  and  C_18
REMARK    4  A    between atoms: C_8  and  C_10
REMARK    5  A    between atoms: C_11  and  C_12
REMARK    6  A    between atoms: C_11  and  N_31
REMARK    7  A    between atoms: C_22  and  O_29
REMARK    8  A    between atoms: C_23  and  O_28
REMARK                            x       y       z     vdW  Elec       q    Type
REMARK                         _______ _______ _______ _____ _____    ______ ____
ROOT
ATOM      1  C   UNL     1     -43.134 -17.906 -26.170  0.00  0.00    +0.000 C 
ATOM      2  C   UNL     1     -43.788 -15.463 -26.146  0.00  0.00    +0.000 C 
ATOM      3  C   UNL     1     -44.829 -14.665 -25.379  0.00  0.00    +0.000 C 
ATOM      4  C   UNL     1     -45.755 -15.664 -24.686  0.00  0.00    +0.000 C 
ATOM      5  C   UNL     1     -45.169 -17.046 -24.926  0.00  0.00    +0.000 C 
ATOM      6  O   UNL     1     -42.152 -17.667 -26.922  0.00  0.00    +0.000 OA
ATOM      7  N   UNL     1     -44.021 -16.848 -25.789  0.00  0.00    +0.000 N 
ENDROOT
BRANCH   3   8
ATOM      8  C   UNL     1     -45.582 -13.714 -26.265  0.00  0.00    +0.000 A 
ATOM      9  C   UNL     1     -45.714 -14.066 -27.610  0.00  0.00    +0.000 A 
ATOM     10  C   UNL     1     -46.395 -13.237 -28.496  0.00  0.00    +0.000 A 
ATOM     11  C   UNL     1     -46.952 -12.044 -28.041  0.00  0.00    +0.000 A 
ATOM     12  C   UNL     1     -46.836 -11.661 -26.696  0.00  0.00    +0.000 A 
ATOM     13  C   UNL     1     -46.142 -12.504 -25.788  0.00  0.00    +0.000 A 
BRANCH  13  15
ATOM     14  C   UNL     1     -45.006 -11.310 -23.894  0.00  0.00    +0.000 C 
ATOM     15  O   UNL     1     -45.982 -12.195 -24.425  0.00  0.00    +0.000 OA
ENDBRANCH  13  15
BRANCH  12  17
ATOM     16  C   UNL     1     -46.827  -9.186 -26.530  0.00  0.00    +0.000 C 
ATOM     17  O   UNL     1     -47.403 -10.458 -26.260  0.00  0.00    +0.000 OA
ENDBRANCH  12  17
ENDBRANCH   3   8
BRANCH   4  18
ATOM     18  C   UNL     1     -45.824 -15.380 -23.222  0.00  0.00    +0.000 C 
ATOM     19  O   UNL     1     -46.670 -14.552 -22.792  0.00  0.00    +0.000 OA
ATOM     20  N   UNL     1     -44.942 -16.050 -22.319  0.00  0.00    +0.000 NA
BRANCH  20  21
ATOM     21  C   UNL     1     -44.986 -15.830 -20.884  0.00  0.00    +0.000 C 
BRANCH  21  22
ATOM     22  C   UNL     1     -45.105 -17.137 -20.184  0.00  0.00    +0.000 A 
ATOM     23  C   UNL     1     -46.251 -17.922 -20.356  0.00  0.00    +0.000 A 
ATOM     24  C   UNL     1     -46.349 -19.165 -19.724  0.00  0.00    +0.000 A 
ATOM     25  C   UNL     1     -45.300 -19.626 -18.923  0.00  0.00    +0.000 A 
ATOM     26  C   UNL     1     -44.151 -18.847 -18.757  0.00  0.00    +0.000 A 
ATOM     27  C   UNL     1     -44.052 -17.605 -19.390  0.00  0.00    +0.000 A 
ATOM     28  F   UNL     1     -45.395 -20.831 -18.310  0.00  0.00    +0.000 F 
ENDBRANCH  21  22
ENDBRANCH  20  21
ENDBRANCH   4  18
BRANCH   1  29
ATOM     29  C   UNL     1     -43.370 -19.308 -25.685  0.00  0.00    +0.000 C 
BRANCH  29  31
ATOM     30  C   UNL     1     -41.379 -20.557 -24.756  0.00  0.00    +0.000 C 
ATOM     31  C   UNL     1     -42.564 -19.664 -24.433  0.00  0.00    +0.000 C 
ATOM     32  C   UNL     1     -43.430 -20.294 -23.357  0.00  0.00    +0.000 C 
ENDBRANCH  29  31
ENDBRANCH   1  29
TORSDOF 8
ENDMDL
