MODEL 1
REMARK VINA RESULT:      -6.4      0.000      0.000
REMARK  Name = ZINC000096180993 ZINC96180993 PubChem-97456961
REMARK  4 active torsions:
REMARK  status: ('A' for Active; 'I' for Inactive)
REMARK    1  A    between atoms: C_2  and  C_14
REMARK    2  A    between atoms: C_3  and  C_6
REMARK    3  A    between atoms: C_7  and  C_8
REMARK    4  A    between atoms: C_7  and  N_21
REMARK                            x       y       z     vdW  Elec       q    Type
REMARK                         _______ _______ _______ _____ _____    ______ ____
ROOT
ATOM      1  C   UNL     1     -44.086  -5.672 -34.356  0.00  0.00    +0.000 C 
ATOM      2  C   UNL     1     -44.902  -4.201 -32.418  0.00  0.00    +0.000 C 
ATOM      3  C   UNL     1     -46.296  -3.732 -31.960  0.00  0.00    +0.000 C 
ATOM      4  C   UNL     1     -47.327  -4.293 -32.948  0.00  0.00    +0.000 C 
ATOM      5  C   UNL     1     -46.491  -4.978 -33.953  0.00  0.00    +0.000 C 
ATOM      6  N   UNL     1     -45.110  -4.897 -33.674  0.00  0.00    +0.000 N 
ATOM      7  O   UNL     1     -46.957  -5.586 -34.953  0.00  0.00    +0.000 OA
ENDROOT
BRANCH   2   8
ATOM      8  C   UNL     1     -43.974  -3.038 -32.593  0.00  0.00    +0.000 A 
ATOM      9  C   UNL     1     -44.426  -1.818 -33.121  0.00  0.00    +0.000 A 
ATOM     10  C   UNL     1     -43.540  -0.748 -33.273  0.00  0.00    +0.000 A 
ATOM     11  C   UNL     1     -42.201  -0.891 -32.900  0.00  0.00    +0.000 A 
ATOM     12  C   UNL     1     -41.747  -2.104 -32.373  0.00  0.00    +0.000 A 
ATOM     13  C   UNL     1     -42.632  -3.176 -32.221  0.00  0.00    +0.000 A 
ATOM     14  F   UNL     1     -41.343   0.147 -33.047  0.00  0.00    +0.000 F 
ENDBRANCH   2   8
BRANCH   3  15
ATOM     15  C   UNL     1     -46.580  -4.206 -30.573  0.00  0.00    +0.000 C 
ATOM     16  N   UNL     1     -45.819  -5.277 -30.011  0.00  0.00    +0.000 NA
ATOM     17  O   UNL     1     -47.492  -3.651 -29.906  0.00  0.00    +0.000 OA
BRANCH  16  18
ATOM     18  C   UNL     1     -46.054  -5.765 -28.662  0.00  0.00    +0.000 C 
BRANCH  18  19
ATOM     19  C   UNL     1     -44.773  -6.236 -28.070  0.00  0.00    +0.000 A 
ATOM     20  C   UNL     1     -43.577  -6.090 -28.782  0.00  0.00    +0.000 A 
ATOM     21  C   UNL     1     -42.370  -6.508 -28.215  0.00  0.00    +0.000 A 
ATOM     22  C   UNL     1     -42.355  -7.068 -26.933  0.00  0.00    +0.000 A 
ATOM     23  C   UNL     1     -43.549  -7.208 -26.219  0.00  0.00    +0.000 A 
ATOM     24  C   UNL     1     -44.757  -6.790 -26.786  0.00  0.00    +0.000 A 
ATOM     25  F   UNL     1     -43.535  -7.748 -24.976  0.00  0.00    +0.000 F 
ENDBRANCH  18  19
ENDBRANCH  16  18
ENDBRANCH   3  15
TORSDOF 4
ENDMDL
MODEL 2
REMARK VINA RESULT:      -6.3      2.419      7.051
REMARK  Name = ZINC000096180993 ZINC96180993 PubChem-97456961
REMARK  4 active torsions:
REMARK  status: ('A' for Active; 'I' for Inactive)
REMARK    1  A    between atoms: C_2  and  C_14
REMARK    2  A    between atoms: C_3  and  C_6
REMARK    3  A    between atoms: C_7  and  C_8
REMARK    4  A    between atoms: C_7  and  N_21
REMARK                            x       y       z     vdW  Elec       q    Type
REMARK                         _______ _______ _______ _____ _____    ______ ____
ROOT
ATOM      1  C   UNL     1     -47.348  -8.476 -28.679  0.00  0.00    +0.000 C 
ATOM      2  C   UNL     1     -46.397  -6.107 -28.940  0.00  0.00    +0.000 C 
ATOM      3  C   UNL     1     -45.088  -5.552 -29.533  0.00  0.00    +0.000 C 
ATOM      4  C   UNL     1     -44.246  -6.744 -30.007  0.00  0.00    +0.000 C 
ATOM      5  C   UNL     1     -45.056  -7.909 -29.602  0.00  0.00    +0.000 C 
ATOM      6  N   UNL     1     -46.263  -7.552 -28.964  0.00  0.00    +0.000 N 
ATOM      7  O   UNL     1     -44.717  -9.103 -29.815  0.00  0.00    +0.000 OA
ENDROOT
BRANCH   2   8
ATOM      8  C   UNL     1     -46.610  -5.607 -27.544  0.00  0.00    +0.000 A 
ATOM      9  C   UNL     1     -47.258  -4.386 -27.299  0.00  0.00    +0.000 A 
ATOM     10  C   UNL     1     -47.445  -3.942 -25.988  0.00  0.00    +0.000 A 
ATOM     11  C   UNL     1     -46.988  -4.714 -24.916  0.00  0.00    +0.000 A 
ATOM     12  C   UNL     1     -46.344  -5.932 -25.156  0.00  0.00    +0.000 A 
ATOM     13  C   UNL     1     -46.155  -6.377 -26.468  0.00  0.00    +0.000 A 
ATOM     14  F   UNL     1     -47.171  -4.284 -23.645  0.00  0.00    +0.000 F 
ENDBRANCH   2   8
BRANCH   3  15
ATOM     15  C   UNL     1     -45.377  -4.624 -30.667  0.00  0.00    +0.000 C 
ATOM     16  N   UNL     1     -44.867  -4.906 -31.972  0.00  0.00    +0.000 NA
ATOM     17  O   UNL     1     -46.076  -3.597 -30.461  0.00  0.00    +0.000 OA
BRANCH  16  18
ATOM     18  C   UNL     1     -45.130  -4.037 -33.106  0.00  0.00    +0.000 C 
BRANCH  18  19
ATOM     19  C   UNL     1     -44.142  -2.924 -33.124  0.00  0.00    +0.000 A 
ATOM     20  C   UNL     1     -44.583  -1.597 -33.126  0.00  0.00    +0.000 A 
ATOM     21  C   UNL     1     -43.655  -0.551 -33.115  0.00  0.00    +0.000 A 
ATOM     22  C   UNL     1     -42.284  -0.831 -33.097  0.00  0.00    +0.000 A 
ATOM     23  C   UNL     1     -41.843  -2.158 -33.089  0.00  0.00    +0.000 A 
ATOM     24  C   UNL     1     -42.771  -3.205 -33.099  0.00  0.00    +0.000 A 
ATOM     25  F   UNL     1     -40.516  -2.431 -33.068  0.00  0.00    +0.000 F 
ENDBRANCH  18  19
ENDBRANCH  16  18
ENDBRANCH   3  15
TORSDOF 4
ENDMDL
MODEL 3
REMARK VINA RESULT:      -6.2     13.543     16.753
REMARK  Name = ZINC000096180993 ZINC96180993 PubChem-97456961
REMARK  4 active torsions:
REMARK  status: ('A' for Active; 'I' for Inactive)
REMARK    1  A    between atoms: C_2  and  C_14
REMARK    2  A    between atoms: C_3  and  C_6
REMARK    3  A    between atoms: C_7  and  C_8
REMARK    4  A    between atoms: C_7  and  N_21
REMARK                            x       y       z     vdW  Elec       q    Type
REMARK                         _______ _______ _______ _____ _____    ______ ____
ROOT
ATOM      1  C   UNL     1     -44.334 -14.612 -17.896  0.00  0.00    +0.000 C 
ATOM      2  C   UNL     1     -45.243 -15.608 -20.079  0.00  0.00    +0.000 C 
ATOM      3  C   UNL     1     -46.398 -15.217 -21.021  0.00  0.00    +0.000 C 
ATOM      4  C   UNL     1     -47.094 -13.987 -20.422  0.00  0.00    +0.000 C 
ATOM      5  C   UNL     1     -46.374 -13.780 -19.150  0.00  0.00    +0.000 C 
ATOM      6  N   UNL     1     -45.344 -14.720 -18.936  0.00  0.00    +0.000 N 
ATOM      7  O   UNL     1     -46.636 -12.850 -18.342  0.00  0.00    +0.000 OA
ENDROOT
BRANCH   2   8
ATOM      8  C   UNL     1     -45.353 -17.043 -19.661  0.00  0.00    +0.000 A 
ATOM      9  C   UNL     1     -46.556 -17.753 -19.806  0.00  0.00    +0.000 A 
ATOM     10  C   UNL     1     -46.632 -19.091 -19.408  0.00  0.00    +0.000 A 
ATOM     11  C   UNL     1     -45.510 -19.724 -18.865  0.00  0.00    +0.000 A 
ATOM     12  C   UNL     1     -44.311 -19.020 -18.721  0.00  0.00    +0.000 A 
ATOM     13  C   UNL     1     -44.233 -17.681 -19.117  0.00  0.00    +0.000 A 
ATOM     14  F   UNL     1     -45.584 -21.021 -18.482  0.00  0.00    +0.000 F 
ENDBRANCH   2   8
BRANCH   3  15
ATOM     15  C   UNL     1     -45.882 -14.918 -22.389  0.00  0.00    +0.000 C 
ATOM     16  N   UNL     1     -46.534 -15.465 -23.537  0.00  0.00    +0.000 NA
ATOM     17  O   UNL     1     -44.872 -14.177 -22.520  0.00  0.00    +0.000 OA
BRANCH  16  18
ATOM     18  C   UNL     1     -46.073 -15.194 -24.888  0.00  0.00    +0.000 C 
BRANCH  18  19
ATOM     19  C   UNL     1     -45.378 -16.393 -25.430  0.00  0.00    +0.000 A 
ATOM     20  C   UNL     1     -44.296 -16.241 -26.303  0.00  0.00    +0.000 A 
ATOM     21  C   UNL     1     -43.626 -17.367 -26.791  0.00  0.00    +0.000 A 
ATOM     22  C   UNL     1     -44.034 -18.647 -26.403  0.00  0.00    +0.000 A 
ATOM     23  C   UNL     1     -45.112 -18.800 -25.525  0.00  0.00    +0.000 A 
ATOM     24  C   UNL     1     -45.782 -17.673 -25.036  0.00  0.00    +0.000 A 
ATOM     25  F   UNL     1     -45.506 -20.039 -25.146  0.00  0.00    +0.000 F 
ENDBRANCH  18  19
ENDBRANCH  16  18
ENDBRANCH   3  15
TORSDOF 4
ENDMDL
