MODEL 1
REMARK VINA RESULT:      -7.4      0.000      0.000
REMARK  Name = ZINC000100138715
REMARK  4 active torsions:
REMARK  status: ('A' for Active; 'I' for Inactive)
REMARK    1  A    between atoms: C_1  and  C_13
REMARK    2  A    between atoms: C_6  and  C_21
REMARK    3  A    between atoms: C_16  and  O_17
REMARK    4  A    between atoms: C_21  and  C_22
REMARK                            x       y       z     vdW  Elec       q    Type
REMARK                         _______ _______ _______ _____ _____    ______ ____
ROOT
ATOM      1  C   UNL     1     -46.347  -3.388 -32.314  0.00  0.00    +0.000 C 
ATOM      2  C   UNL     1     -46.973  -3.413 -33.698  0.00  0.00    +0.000 C 
ATOM      3  C   UNL     1     -46.975  -4.868 -34.151  0.00  0.00    +0.000 C 
ATOM      4  C   UNL     1     -46.691  -5.709 -32.920  0.00  0.00    +0.000 C 
ATOM      5  N   UNL     1     -46.311  -4.773 -31.882  0.00  0.00    +0.000 N 
ATOM      6  C   UNL     1     -45.895  -5.180 -30.572  0.00  0.00    +0.000 C 
ATOM      7  O   UNL     1     -45.833  -4.336 -29.638  0.00  0.00    +0.000 OA
ENDROOT
BRANCH   1  13
ATOM      8  C   UNL     1     -40.104   0.417 -32.310  0.00  0.00    +0.000 C 
ATOM      9  C   UNL     1     -41.057  -0.723 -32.447  0.00  0.00    +0.000 A 
ATOM     10  N   UNL     1     -42.384  -0.503 -32.212  0.00  0.00    +0.000 NA
ATOM     11  C   UNL     1     -43.255  -1.532 -32.336  0.00  0.00    +0.000 A 
ATOM     12  C   UNL     1     -44.619  -1.507 -32.133  0.00  0.00    +0.000 A 
ATOM     13  C   UNL     1     -44.957  -2.837 -32.396  0.00  0.00    +0.000 A 
ATOM     14  N   UNL     1     -43.873  -3.580 -32.726  0.00  0.00    +0.000 NA
ATOM     15  N   UNL     1     -42.845  -2.755 -32.681  0.00  0.00    +0.000 N 
ATOM     16  C   UNL     1     -41.547  -3.050 -32.927  0.00  0.00    +0.000 A 
ATOM     17  C   UNL     1     -40.602  -2.017 -32.813  0.00  0.00    +0.000 A 
ATOM     18  C   UNL     1     -39.155  -2.289 -33.070  0.00  0.00    +0.000 C 
BRANCH  16  19
ATOM     19  O   UNL     1     -41.169  -4.342 -33.282  0.00  0.00    +0.000 OA
ATOM     20  H   UNL     1     -40.426  -4.476 -33.836  0.00  0.00    +0.000 HD
ENDBRANCH  16  19
ENDBRANCH   1  13
BRANCH   6  21
ATOM     21  C   UNL     1     -45.437  -6.578 -30.321  0.00  0.00    +0.000 C 
BRANCH  21  22
ATOM     22  C   UNL     1     -45.606  -6.905 -28.869  0.00  0.00    +0.000 A 
ATOM     23  N   UNL     1     -46.835  -7.272 -28.414  0.00  0.00    +0.000 NA
ATOM     24  N   UNL     1     -47.040  -7.624 -27.144  0.00  0.00    +0.000 N 
ATOM     25  C   UNL     1     -46.030  -7.641 -26.236  0.00  0.00    +0.000 A 
ATOM     26  O   UNL     1     -46.266  -7.998 -25.050  0.00  0.00    +0.000 OA
ATOM     27  C   UNL     1     -44.739  -7.273 -26.636  0.00  0.00    +0.000 A 
ATOM     28  C   UNL     1     -43.666  -7.281 -25.732  0.00  0.00    +0.000 A 
ATOM     29  C   UNL     1     -42.385  -6.918 -26.159  0.00  0.00    +0.000 A 
ATOM     30  C   UNL     1     -42.167  -6.548 -27.488  0.00  0.00    +0.000 A 
ATOM     31  C   UNL     1     -43.229  -6.539 -28.395  0.00  0.00    +0.000 A 
ATOM     32  C   UNL     1     -44.520  -6.899 -27.979  0.00  0.00    +0.000 A 
ATOM     33  H   UNL     1     -47.947  -7.877 -26.858  0.00  0.00    +0.000 HD
ENDBRANCH  21  22
ENDBRANCH   6  21
TORSDOF 4
ENDMDL
MODEL 2
REMARK VINA RESULT:      -7.3      1.825      2.443
REMARK  Name = ZINC000100138715
REMARK  4 active torsions:
REMARK  status: ('A' for Active; 'I' for Inactive)
REMARK    1  A    between atoms: C_1  and  C_13
REMARK    2  A    between atoms: C_6  and  C_21
REMARK    3  A    between atoms: C_16  and  O_17
REMARK    4  A    between atoms: C_21  and  C_22
REMARK                            x       y       z     vdW  Elec       q    Type
REMARK                         _______ _______ _______ _____ _____    ______ ____
ROOT
ATOM      1  C   UNL     1     -46.570  -2.974 -32.472  0.00  0.00    +0.000 C 
ATOM      2  C   UNL     1     -47.057  -3.243 -33.885  0.00  0.00    +0.000 C 
ATOM      3  C   UNL     1     -47.142  -4.757 -34.038  0.00  0.00    +0.000 C 
ATOM      4  C   UNL     1     -47.053  -5.343 -32.641  0.00  0.00    +0.000 C 
ATOM      5  N   UNL     1     -46.696  -4.240 -31.772  0.00  0.00    +0.000 N 
ATOM      6  C   UNL     1     -46.445  -4.394 -30.369  0.00  0.00    +0.000 C 
ATOM      7  O   UNL     1     -46.402  -3.382 -29.620  0.00  0.00    +0.000 OA
ENDROOT
BRANCH   1  13
ATOM      8  C   UNL     1     -40.020   0.259 -32.155  0.00  0.00    +0.000 C 
ATOM      9  C   UNL     1     -41.065  -0.782 -32.377  0.00  0.00    +0.000 A 
ATOM     10  N   UNL     1     -42.372  -0.462 -32.140  0.00  0.00    +0.000 NA
ATOM     11  C   UNL     1     -43.327  -1.400 -32.341  0.00  0.00    +0.000 A 
ATOM     12  C   UNL     1     -44.687  -1.268 -32.150  0.00  0.00    +0.000 A 
ATOM     13  C   UNL     1     -45.136  -2.544 -32.503  0.00  0.00    +0.000 A 
ATOM     14  N   UNL     1     -44.115  -3.356 -32.871  0.00  0.00    +0.000 NA
ATOM     15  N   UNL     1     -43.021  -2.630 -32.762  0.00  0.00    +0.000 N 
ATOM     16  C   UNL     1     -41.749  -3.021 -33.014  0.00  0.00    +0.000 A 
ATOM     17  C   UNL     1     -40.719  -2.084 -32.824  0.00  0.00    +0.000 A 
ATOM     18  C   UNL     1     -39.298  -2.466 -33.084  0.00  0.00    +0.000 C 
BRANCH  16  19
ATOM     19  O   UNL     1     -41.480  -4.315 -33.451  0.00  0.00    +0.000 OA
ATOM     20  H   UNL     1     -41.786  -5.049 -32.956  0.00  0.00    +0.000 HD
ENDBRANCH  16  19
ENDBRANCH   1  13
BRANCH   6  21
ATOM     21  C   UNL     1     -46.138  -5.738 -29.797  0.00  0.00    +0.000 C 
BRANCH  21  22
ATOM     22  C   UNL     1     -44.664  -5.990 -29.884  0.00  0.00    +0.000 A 
ATOM     23  N   UNL     1     -44.030  -5.795 -31.071  0.00  0.00    +0.000 NA
ATOM     24  N   UNL     1     -42.711  -5.952 -31.201  0.00  0.00    +0.000 N 
ATOM     25  C   UNL     1     -41.929  -6.311 -30.151  0.00  0.00    +0.000 A 
ATOM     26  O   UNL     1     -40.685  -6.431 -30.315  0.00  0.00    +0.000 OA
ATOM     27  C   UNL     1     -42.516  -6.531 -28.898  0.00  0.00    +0.000 A 
ATOM     28  C   UNL     1     -41.744  -6.898 -27.786  0.00  0.00    +0.000 A 
ATOM     29  C   UNL     1     -42.354  -7.102 -26.545  0.00  0.00    +0.000 A 
ATOM     30  C   UNL     1     -43.734  -6.939 -26.406  0.00  0.00    +0.000 A 
ATOM     31  C   UNL     1     -44.510  -6.571 -27.507  0.00  0.00    +0.000 A 
ATOM     32  C   UNL     1     -43.911  -6.366 -28.760  0.00  0.00    +0.000 A 
ATOM     33  H   UNL     1     -42.296  -5.805 -32.081  0.00  0.00    +0.000 HD
ENDBRANCH  21  22
ENDBRANCH   6  21
TORSDOF 4
ENDMDL
MODEL 3
REMARK VINA RESULT:      -7.3     13.209     15.820
REMARK  Name = ZINC000100138715
REMARK  4 active torsions:
REMARK  status: ('A' for Active; 'I' for Inactive)
REMARK    1  A    between atoms: C_1  and  C_13
REMARK    2  A    between atoms: C_6  and  C_21
REMARK    3  A    between atoms: C_16  and  O_17
REMARK    4  A    between atoms: C_21  and  C_22
REMARK                            x       y       z     vdW  Elec       q    Type
REMARK                         _______ _______ _______ _____ _____    ______ ____
ROOT
ATOM      1  C   UNL     1     -44.768 -16.698 -25.844  0.00  0.00    +0.000 C 
ATOM      2  C   UNL     1     -43.672 -15.900 -26.529  0.00  0.00    +0.000 C 
ATOM      3  C   UNL     1     -42.405 -16.744 -26.456  0.00  0.00    +0.000 C 
ATOM      4  C   UNL     1     -42.835 -18.145 -26.061  0.00  0.00    +0.000 C 
ATOM      5  N   UNL     1     -44.234 -18.040 -25.697  0.00  0.00    +0.000 N 
ATOM      6  C   UNL     1     -44.999 -19.143 -25.195  0.00  0.00    +0.000 C 
ATOM      7  O   UNL     1     -46.256 -19.069 -25.147  0.00  0.00    +0.000 OA
ENDROOT
BRANCH   1  13
ATOM      8  C   UNL     1     -47.330 -13.468 -19.806  0.00  0.00    +0.000 C 
ATOM      9  C   UNL     1     -46.425 -14.220 -20.723  0.00  0.00    +0.000 A 
ATOM     10  N   UNL     1     -46.816 -14.418 -22.016  0.00  0.00    +0.000 NA
ATOM     11  C   UNL     1     -45.999 -15.099 -22.855  0.00  0.00    +0.000 A 
ATOM     12  C   UNL     1     -46.223 -15.403 -24.182  0.00  0.00    +0.000 A 
ATOM     13  C   UNL     1     -45.059 -16.109 -24.499  0.00  0.00    +0.000 A 
ATOM     14  N   UNL     1     -44.222 -16.208 -23.437  0.00  0.00    +0.000 NA
ATOM     15  N   UNL     1     -44.824 -15.582 -22.446  0.00  0.00    +0.000 N 
ATOM     16  C   UNL     1     -44.370 -15.428 -21.179  0.00  0.00    +0.000 A 
ATOM     17  C   UNL     1     -45.179 -14.727 -20.269  0.00  0.00    +0.000 A 
ATOM     18  C   UNL     1     -44.728 -14.532 -18.857  0.00  0.00    +0.000 C 
BRANCH  16  19
ATOM     19  O   UNL     1     -43.137 -15.950 -20.800  0.00  0.00    +0.000 OA
ATOM     20  H   UNL     1     -43.060 -16.858 -20.584  0.00  0.00    +0.000 HD
ENDBRANCH  16  19
ENDBRANCH   1  13
BRANCH   6  21
ATOM     21  C   UNL     1     -44.318 -20.347 -24.635  0.00  0.00    +0.000 C 
BRANCH  21  22
ATOM     22  C   UNL     1     -43.760 -20.021 -23.283  0.00  0.00    +0.000 A 
ATOM     23  N   UNL     1     -44.458 -19.186 -22.466  0.00  0.00    +0.000 NA
ATOM     24  N   UNL     1     -44.042 -18.897 -21.232  0.00  0.00    +0.000 N 
ATOM     25  C   UNL     1     -42.899 -19.426 -20.722  0.00  0.00    +0.000 A 
ATOM     26  O   UNL     1     -42.553 -19.139 -19.545  0.00  0.00    +0.000 OA
ATOM     27  C   UNL     1     -42.130 -20.292 -21.510  0.00  0.00    +0.000 A 
ATOM     28  C   UNL     1     -40.947 -20.866 -21.021  0.00  0.00    +0.000 A 
ATOM     29  C   UNL     1     -40.203 -21.735 -21.824  0.00  0.00    +0.000 A 
ATOM     30  C   UNL     1     -40.636 -22.039 -23.116  0.00  0.00    +0.000 A 
ATOM     31  C   UNL     1     -41.814 -21.474 -23.611  0.00  0.00    +0.000 A 
ATOM     32  C   UNL     1     -42.569 -20.599 -22.816  0.00  0.00    +0.000 A 
ATOM     33  H   UNL     1     -44.575 -18.283 -20.678  0.00  0.00    +0.000 HD
ENDBRANCH  21  22
ENDBRANCH   6  21
TORSDOF 4
ENDMDL
