MODEL 1
REMARK VINA RESULT:      -6.2      0.000      0.000
REMARK  Name = ZINC000018195880 ZINC18195880
REMARK  2 active torsions:
REMARK  status: ('A' for Active; 'I' for Inactive)
REMARK    1  A    between atoms: C_6  and  C_21
REMARK    2  A    between atoms: C_11  and  O_12
REMARK                            x       y       z     vdW  Elec       q    Type
REMARK                         _______ _______ _______ _____ _____    ______ ____
ROOT
ATOM      1  C   UNL     1     -44.006  -0.097 -32.181  0.00  0.00    +0.000 C 
ATOM      2  C   UNL     1     -44.228  -1.591 -32.287  0.00  0.00    +0.000 C 
ATOM      3  C   UNL     1     -45.250  -2.009 -31.227  0.00  0.00    +0.000 C 
ATOM      4  C   UNL     1     -45.368  -3.501 -31.056  0.00  0.00    +0.000 C 
ATOM      5  C   UNL     1     -44.341  -4.342 -31.382  0.00  0.00    +0.000 C 
ATOM      6  C   UNL     1     -44.467  -5.866 -31.265  0.00  0.00    +0.000 C 
ATOM      7  C   UNL     1     -45.696  -6.262 -30.504  0.00  0.00    +0.000 A 
ATOM      8  C   UNL     1     -46.679  -5.390 -30.178  0.00  0.00    +0.000 A 
ATOM      9  N   UNL     1     -47.697  -6.010 -29.557  0.00  0.00    +0.000 N 
ATOM     10  N   UNL     1     -47.381  -7.300 -29.485  0.00  0.00    +0.000 NA
ATOM     11  C   UNL     1     -46.171  -7.470 -30.059  0.00  0.00    +0.000 A 
ATOM     12  N   UNL     1     -46.579  -4.001 -30.459  0.00  0.00    +0.000 N 
ATOM     13  C   UNL     1     -43.070  -3.778 -31.898  0.00  0.00    +0.000 C 
ATOM     14  O   UNL     1     -42.101  -4.535 -32.167  0.00  0.00    +0.000 OA
ATOM     15  C   UNL     1     -42.895  -2.298 -32.055  0.00  0.00    +0.000 C 
ATOM     16  C   UNL     1     -44.757  -1.898 -33.680  0.00  0.00    +0.000 C 
ATOM     17  H   UNL     1     -48.521  -5.589 -29.220  0.00  0.00    +0.000 HD
ATOM     18  H   UNL     1     -47.323  -3.392 -30.248  0.00  0.00    +0.000 HD
ENDROOT
BRANCH   6  19
ATOM     19  C   UNL     1     -44.456  -6.521 -32.617  0.00  0.00    +0.000 A 
ATOM     20  C   UNL     1     -43.562  -7.558 -32.916  0.00  0.00    +0.000 A 
ATOM     21  C   UNL     1     -43.581  -8.132 -34.188  0.00  0.00    +0.000 A 
ATOM     22  N   UNL     1     -44.459  -7.684 -35.125  0.00  0.00    +0.000 NA
ATOM     23  C   UNL     1     -45.332  -6.675 -34.858  0.00  0.00    +0.000 A 
ATOM     24  C   UNL     1     -45.345  -6.075 -33.598  0.00  0.00    +0.000 A 
ENDBRANCH   6  19
BRANCH  11  25
ATOM     25  O   UNL     1     -45.529  -8.696 -30.178  0.00  0.00    +0.000 OA
ATOM     26  H   UNL     1     -45.196  -9.127 -29.415  0.00  0.00    +0.000 HD
ENDBRANCH  11  25
TORSDOF 2
ENDMDL
MODEL 2
REMARK VINA RESULT:      -5.9     13.457     16.061
REMARK  Name = ZINC000018195880 ZINC18195880
REMARK  2 active torsions:
REMARK  status: ('A' for Active; 'I' for Inactive)
REMARK    1  A    between atoms: C_6  and  C_21
REMARK    2  A    between atoms: C_11  and  O_12
REMARK                            x       y       z     vdW  Elec       q    Type
REMARK                         _______ _______ _______ _____ _____    ______ ____
ROOT
ATOM      1  C   UNL     1     -46.168 -15.464 -18.219  0.00  0.00    +0.000 C 
ATOM      2  C   UNL     1     -45.553 -16.156 -19.416  0.00  0.00    +0.000 C 
ATOM      3  C   UNL     1     -45.905 -15.359 -20.674  0.00  0.00    +0.000 C 
ATOM      4  C   UNL     1     -45.571 -16.075 -21.958  0.00  0.00    +0.000 C 
ATOM      5  C   UNL     1     -45.487 -17.437 -22.015  0.00  0.00    +0.000 C 
ATOM      6  C   UNL     1     -45.096 -18.176 -23.301  0.00  0.00    +0.000 C 
ATOM      7  C   UNL     1     -45.109 -17.264 -24.489  0.00  0.00    +0.000 A 
ATOM      8  C   UNL     1     -45.220 -15.918 -24.388  0.00  0.00    +0.000 A 
ATOM      9  N   UNL     1     -45.139 -15.328 -25.594  0.00  0.00    +0.000 N 
ATOM     10  N   UNL     1     -44.964 -16.296 -26.489  0.00  0.00    +0.000 NA
ATOM     11  C   UNL     1     -44.940 -17.477 -25.834  0.00  0.00    +0.000 A 
ATOM     12  N   UNL     1     -45.422 -15.269 -23.141  0.00  0.00    +0.000 N 
ATOM     13  C   UNL     1     -45.751 -18.239 -20.795  0.00  0.00    +0.000 C 
ATOM     14  O   UNL     1     -45.715 -19.496 -20.839  0.00  0.00    +0.000 OA
ATOM     15  C   UNL     1     -46.117 -17.572 -19.504  0.00  0.00    +0.000 C 
ATOM     16  C   UNL     1     -44.045 -16.196 -19.221  0.00  0.00    +0.000 C 
ATOM     17  H   UNL     1     -45.198 -14.363 -25.779  0.00  0.00    +0.000 HD
ATOM     18  H   UNL     1     -45.461 -14.286 -23.087  0.00  0.00    +0.000 HD
ENDROOT
BRANCH   6  19
ATOM     19  C   UNL     1     -43.753 -18.835 -23.164  0.00  0.00    +0.000 A 
ATOM     20  C   UNL     1     -42.635 -18.121 -22.711  0.00  0.00    +0.000 A 
ATOM     21  C   UNL     1     -41.404 -18.771 -22.606  0.00  0.00    +0.000 A 
ATOM     22  N   UNL     1     -41.295 -20.084 -22.946  0.00  0.00    +0.000 NA
ATOM     23  C   UNL     1     -42.366 -20.795 -23.392  0.00  0.00    +0.000 A 
ATOM     24  C   UNL     1     -43.615 -20.182 -23.510  0.00  0.00    +0.000 A 
ENDBRANCH   6  19
BRANCH  11  25
ATOM     25  O   UNL     1     -44.759 -18.708 -26.450  0.00  0.00    +0.000 OA
ATOM     26  H   UNL     1     -44.001 -19.224 -26.256  0.00  0.00    +0.000 HD
ENDBRANCH  11  25
TORSDOF 2
ENDMDL
MODEL 3
REMARK VINA RESULT:      -5.9      2.856      5.387
REMARK  Name = ZINC000018195880 ZINC18195880
REMARK  2 active torsions:
REMARK  status: ('A' for Active; 'I' for Inactive)
REMARK    1  A    between atoms: C_6  and  C_21
REMARK    2  A    between atoms: C_11  and  O_12
REMARK                            x       y       z     vdW  Elec       q    Type
REMARK                         _______ _______ _______ _____ _____    ______ ____
ROOT
ATOM      1  C   UNL     1     -44.794  -7.648 -27.457  0.00  0.00    +0.000 C 
ATOM      2  C   UNL     1     -44.901  -6.896 -28.766  0.00  0.00    +0.000 C 
ATOM      3  C   UNL     1     -43.551  -6.243 -29.066  0.00  0.00    +0.000 C 
ATOM      4  C   UNL     1     -43.595  -5.257 -30.205  0.00  0.00    +0.000 C 
ATOM      5  C   UNL     1     -44.752  -4.623 -30.558  0.00  0.00    +0.000 C 
ATOM      6  C   UNL     1     -44.824  -3.660 -31.749  0.00  0.00    +0.000 C 
ATOM      7  C   UNL     1     -43.460  -3.305 -32.256  0.00  0.00    +0.000 A 
ATOM      8  C   UNL     1     -42.333  -3.944 -31.861  0.00  0.00    +0.000 A 
ATOM      9  N   UNL     1     -41.252  -3.481 -32.512  0.00  0.00    +0.000 N 
ATOM     10  N   UNL     1     -41.677  -2.537 -33.348  0.00  0.00    +0.000 NA
ATOM     11  C   UNL     1     -43.016  -2.422 -33.208  0.00  0.00    +0.000 A 
ATOM     12  N   UNL     1     -42.349  -4.951 -30.858  0.00  0.00    +0.000 N 
ATOM     13  C   UNL     1     -45.995  -4.889 -29.792  0.00  0.00    +0.000 C 
ATOM     14  O   UNL     1     -47.061  -4.284 -30.079  0.00  0.00    +0.000 OA
ATOM     15  C   UNL     1     -45.992  -5.837 -28.631  0.00  0.00    +0.000 C 
ATOM     16  C   UNL     1     -45.261  -7.891 -29.860  0.00  0.00    +0.000 C 
ATOM     17  H   UNL     1     -40.323  -3.782 -32.393  0.00  0.00    +0.000 HD
ATOM     18  H   UNL     1     -41.524  -5.429 -30.615  0.00  0.00    +0.000 HD
ENDROOT
BRANCH   6  19
ATOM     19  C   UNL     1     -45.663  -4.226 -32.859  0.00  0.00    +0.000 A 
ATOM     20  C   UNL     1     -46.808  -3.561 -33.318  0.00  0.00    +0.000 A 
ATOM     21  C   UNL     1     -47.562  -4.128 -34.347  0.00  0.00    +0.000 A 
ATOM     22  N   UNL     1     -47.187  -5.316 -34.893  0.00  0.00    +0.000 NA
ATOM     23  C   UNL     1     -46.082  -5.981 -34.460  0.00  0.00    +0.000 A 
ATOM     24  C   UNL     1     -45.300  -5.447 -33.434  0.00  0.00    +0.000 A 
ENDBRANCH   6  19
BRANCH  11  25
ATOM     25  O   UNL     1     -43.804  -1.540 -33.936  0.00  0.00    +0.000 OA
ATOM     26  H   UNL     1     -44.731  -1.521 -33.804  0.00  0.00    +0.000 HD
ENDBRANCH  11  25
TORSDOF 2
ENDMDL
