MODEL 1
REMARK VINA RESULT:      -7.0      0.000      0.000
REMARK  Name = ZINC000040009606 ZINC40009606 CSC027005518 MCULE-5704859829 MolPort-009-402-766 PubChem-45858595
REMARK  3 active torsions:
REMARK  status: ('A' for Active; 'I' for Inactive)
REMARK    1  A    between atoms: C_1  and  C_2
REMARK    2  A    between atoms: C_1  and  C_16
REMARK    3  A    between atoms: C_16  and  C_26
REMARK                            x       y       z     vdW  Elec       q    Type
REMARK                         _______ _______ _______ _____ _____    ______ ____
ROOT
ATOM      1  C   UNL     1     -46.011  -2.859 -31.974  0.00  0.00    +0.000 C 
ENDROOT
BRANCH   1   2
ATOM      2  C   UNL     1     -46.697  -4.187 -31.985  0.00  0.00    +0.000 C 
ATOM      3  O   UNL     1     -47.343  -4.517 -33.015  0.00  0.00    +0.000 OA
ATOM      4  N   UNL     1     -46.661  -5.057 -30.834  0.00  0.00    +0.000 N 
ATOM      5  C   UNL     1     -46.280  -4.482 -29.537  0.00  0.00    +0.000 C 
ATOM      6  C   UNL     1     -46.984  -5.162 -28.403  0.00  0.00    +0.000 C 
ATOM      7  O   UNL     1     -47.160  -4.550 -27.317  0.00  0.00    +0.000 OA
ATOM      8  N   UNL     1     -47.390  -6.524 -28.527  0.00  0.00    +0.000 N 
ATOM      9  C   UNL     1     -47.286  -7.196 -29.781  0.00  0.00    +0.000 A 
ATOM     10  C   UNL     1     -47.559  -8.566 -29.860  0.00  0.00    +0.000 A 
ATOM     11  C   UNL     1     -47.458  -9.231 -31.084  0.00  0.00    +0.000 A 
ATOM     12  C   UNL     1     -47.087  -8.527 -32.233  0.00  0.00    +0.000 A 
ATOM     13  C   UNL     1     -46.823  -7.157 -32.159  0.00  0.00    +0.000 A 
ATOM     14  C   UNL     1     -46.926  -6.476 -30.935  0.00  0.00    +0.000 A 
ATOM     15  H   UNL     1     -47.745  -7.003 -27.742  0.00  0.00    +0.000 HD
ENDBRANCH   1   2
BRANCH   1  16
ATOM     16  C   UNL     1     -45.399  -2.577 -33.335  0.00  0.00    +0.000 C 
BRANCH  16  26
ATOM     17  C   UNL     1     -38.583  -0.164 -32.215  0.00  0.00    +0.000 C 
ATOM     18  C   UNL     1     -39.808  -0.946 -32.523  0.00  0.00    +0.000 A 
ATOM     19  N   UNL     1     -41.058  -0.439 -32.423  0.00  0.00    +0.000 NA
ATOM     20  N   UNL     1     -41.873  -1.415 -32.773  0.00  0.00    +0.000 N 
ATOM     21  C   UNL     1     -41.167  -2.506 -33.085  0.00  0.00    +0.000 A 
ATOM     22  C   UNL     1     -39.814  -2.277 -32.946  0.00  0.00    +0.000 A 
ATOM     23  N   UNL     1     -41.769  -3.652 -33.479  0.00  0.00    +0.000 NA
ATOM     24  C   UNL     1     -43.130  -3.694 -33.561  0.00  0.00    +0.000 A 
ATOM     25  C   UNL     1     -43.780  -4.964 -33.997  0.00  0.00    +0.000 C 
ATOM     26  C   UNL     1     -43.904  -2.550 -33.231  0.00  0.00    +0.000 A 
ATOM     27  C   UNL     1     -43.229  -1.378 -32.828  0.00  0.00    +0.000 A 
ATOM     28  C   UNL     1     -43.968  -0.129 -32.468  0.00  0.00    +0.000 C 
ENDBRANCH  16  26
ENDBRANCH   1  16
TORSDOF 3
ENDMDL
MODEL 2
REMARK VINA RESULT:      -6.9      2.560      8.278
REMARK  Name = ZINC000040009606 ZINC40009606 CSC027005518 MCULE-5704859829 MolPort-009-402-766 PubChem-45858595
REMARK  3 active torsions:
REMARK  status: ('A' for Active; 'I' for Inactive)
REMARK    1  A    between atoms: C_1  and  C_2
REMARK    2  A    between atoms: C_1  and  C_16
REMARK    3  A    between atoms: C_16  and  C_26
REMARK                            x       y       z     vdW  Elec       q    Type
REMARK                         _______ _______ _______ _____ _____    ______ ____
ROOT
ATOM      1  C   UNL     1     -45.859  -5.645 -29.309  0.00  0.00    +0.000 C 
ENDROOT
BRANCH   1   2
ATOM      2  C   UNL     1     -45.819  -4.505 -30.275  0.00  0.00    +0.000 C 
ATOM      3  O   UNL     1     -46.776  -3.687 -30.272  0.00  0.00    +0.000 OA
ATOM      4  N   UNL     1     -44.736  -4.363 -31.219  0.00  0.00    +0.000 N 
ATOM      5  C   UNL     1     -43.885  -5.529 -31.485  0.00  0.00    +0.000 C 
ATOM      6  C   UNL     1     -43.386  -5.539 -32.898  0.00  0.00    +0.000 C 
ATOM      7  O   UNL     1     -43.059  -6.626 -33.440  0.00  0.00    +0.000 OA
ATOM      8  N   UNL     1     -43.216  -4.311 -33.604  0.00  0.00    +0.000 N 
ATOM      9  C   UNL     1     -43.675  -3.084 -33.039  0.00  0.00    +0.000 A 
ATOM     10  C   UNL     1     -43.382  -1.874 -33.676  0.00  0.00    +0.000 A 
ATOM     11  C   UNL     1     -43.828  -0.669 -33.129  0.00  0.00    +0.000 A 
ATOM     12  C   UNL     1     -44.570  -0.671 -31.945  0.00  0.00    +0.000 A 
ATOM     13  C   UNL     1     -44.871  -1.879 -31.311  0.00  0.00    +0.000 A 
ATOM     14  C   UNL     1     -44.433  -3.099 -31.855  0.00  0.00    +0.000 A 
ATOM     15  H   UNL     1     -42.778  -4.310 -34.487  0.00  0.00    +0.000 HD
ENDBRANCH   1   2
BRANCH   1  16
ATOM     16  C   UNL     1     -47.192  -6.365 -29.406  0.00  0.00    +0.000 C 
BRANCH  16  26
ATOM     17  C   UNL     1     -46.040 -13.506 -28.302  0.00  0.00    +0.000 C 
ATOM     18  C   UNL     1     -46.262 -12.145 -28.856  0.00  0.00    +0.000 A 
ATOM     19  N   UNL     1     -46.446 -11.050 -28.085  0.00  0.00    +0.000 NA
ATOM     20  N   UNL     1     -46.608 -10.042 -28.920  0.00  0.00    +0.000 N 
ATOM     21  C   UNL     1     -46.528 -10.481 -30.181  0.00  0.00    +0.000 A 
ATOM     22  C   UNL     1     -46.303 -11.841 -30.219  0.00  0.00    +0.000 A 
ATOM     23  N   UNL     1     -46.660  -9.641 -31.234  0.00  0.00    +0.000 NA
ATOM     24  C   UNL     1     -46.878  -8.314 -31.003  0.00  0.00    +0.000 A 
ATOM     25  C   UNL     1     -47.021  -7.400 -32.173  0.00  0.00    +0.000 C 
ATOM     26  C   UNL     1     -46.972  -7.823 -29.674  0.00  0.00    +0.000 A 
ATOM     27  C   UNL     1     -46.824  -8.739 -28.610  0.00  0.00    +0.000 A 
ATOM     28  C   UNL     1     -46.904  -8.303 -27.181  0.00  0.00    +0.000 C 
ENDBRANCH  16  26
ENDBRANCH   1  16
TORSDOF 3
ENDMDL
MODEL 3
REMARK VINA RESULT:      -6.8      2.869      8.551
REMARK  Name = ZINC000040009606 ZINC40009606 CSC027005518 MCULE-5704859829 MolPort-009-402-766 PubChem-45858595
REMARK  3 active torsions:
REMARK  status: ('A' for Active; 'I' for Inactive)
REMARK    1  A    between atoms: C_1  and  C_2
REMARK    2  A    between atoms: C_1  and  C_16
REMARK    3  A    between atoms: C_16  and  C_26
REMARK                            x       y       z     vdW  Elec       q    Type
REMARK                         _______ _______ _______ _____ _____    ______ ____
ROOT
ATOM      1  C   UNL     1     -45.047  -6.916 -32.532  0.00  0.00    +0.000 C 
ENDROOT
BRANCH   1   2
ATOM      2  C   UNL     1     -45.291  -5.442 -32.598  0.00  0.00    +0.000 C 
ATOM      3  O   UNL     1     -46.453  -5.019 -32.360  0.00  0.00    +0.000 OA
ATOM      4  N   UNL     1     -44.239  -4.526 -32.965  0.00  0.00    +0.000 N 
ATOM      5  C   UNL     1     -43.049  -5.064 -33.637  0.00  0.00    +0.000 C 
ATOM      6  C   UNL     1     -42.466  -4.078 -34.604  0.00  0.00    +0.000 C 
ATOM      7  O   UNL     1     -41.776  -4.484 -35.574  0.00  0.00    +0.000 OA
ATOM      8  N   UNL     1     -42.634  -2.678 -34.385  0.00  0.00    +0.000 N 
ATOM      9  C   UNL     1     -43.494  -2.207 -33.348  0.00  0.00    +0.000 A 
ATOM     10  C   UNL     1     -43.545  -0.841 -33.055  0.00  0.00    +0.000 A 
ATOM     11  C   UNL     1     -44.384  -0.373 -32.041  0.00  0.00    +0.000 A 
ATOM     12  C   UNL     1     -45.176  -1.271 -31.320  0.00  0.00    +0.000 A 
ATOM     13  C   UNL     1     -45.133  -2.636 -31.616  0.00  0.00    +0.000 A 
ATOM     14  C   UNL     1     -44.297  -3.118 -32.637  0.00  0.00    +0.000 A 
ATOM     15  H   UNL     1     -42.152  -2.033 -34.953  0.00  0.00    +0.000 HD
ENDBRANCH   1   2
BRANCH   1  16
ATOM     16  C   UNL     1     -46.340  -7.670 -32.781  0.00  0.00    +0.000 C 
BRANCH  16  26
ATOM     17  C   UNL     1     -46.817 -13.070 -27.865  0.00  0.00    +0.000 C 
ATOM     18  C   UNL     1     -46.601 -12.221 -29.066  0.00  0.00    +0.000 A 
ATOM     19  N   UNL     1     -46.884 -10.900 -29.102  0.00  0.00    +0.000 NA
ATOM     20  N   UNL     1     -46.564 -10.495 -30.316  0.00  0.00    +0.000 N 
ATOM     21  C   UNL     1     -46.092 -11.524 -31.027  0.00  0.00    +0.000 A 
ATOM     22  C   UNL     1     -46.086 -12.682 -30.280  0.00  0.00    +0.000 A 
ATOM     23  N   UNL     1     -45.690 -11.373 -32.311  0.00  0.00    +0.000 NA
ATOM     24  C   UNL     1     -45.767 -10.141 -32.892  0.00  0.00    +0.000 A 
ATOM     25  C   UNL     1     -45.320  -9.991 -34.308  0.00  0.00    +0.000 C 
ATOM     26  C   UNL     1     -46.268  -9.034 -32.160  0.00  0.00    +0.000 A 
ATOM     27  C   UNL     1     -46.672  -9.241 -30.824  0.00  0.00    +0.000 A 
ATOM     28  C   UNL     1     -47.207  -8.126 -29.982  0.00  0.00    +0.000 C 
ENDBRANCH  16  26
ENDBRANCH   1  16
TORSDOF 3
ENDMDL
