MODEL 1
REMARK VINA RESULT:      -7.5      0.000      0.000
REMARK  Name = ZINC000016045159 CSC026732198 MCULE-2825595349 MolPort-005-315-093
REMARK  5 active torsions:
REMARK  status: ('A' for Active; 'I' for Inactive)
REMARK    1  A    between atoms: C_1  and  C_14
REMARK    2  A    between atoms: C_6  and  S_26
REMARK    3  A    between atoms: N_13  and  C_19
REMARK    4  A    between atoms: C_17  and  C_24
REMARK    5  A    between atoms: S_26  and  N_29
REMARK                            x       y       z     vdW  Elec       q    Type
REMARK                         _______ _______ _______ _____ _____    ______ ____
ROOT
ATOM      1  C   UNL     1     -45.112  -7.100 -26.752  0.00  0.00    +0.000 A 
ATOM      2  C   UNL     1     -44.595  -6.651 -27.988  0.00  0.00    +0.000 A 
ATOM      3  C   UNL     1     -43.208  -6.390 -28.097  0.00  0.00    +0.000 A 
ATOM      4  C   UNL     1     -42.672  -5.938 -29.305  0.00  0.00    +0.000 A 
ATOM      5  C   UNL     1     -43.503  -5.735 -30.409  0.00  0.00    +0.000 A 
ATOM      6  C   UNL     1     -44.876  -5.979 -30.309  0.00  0.00    +0.000 A 
ATOM      7  C   UNL     1     -45.417  -6.436 -29.104  0.00  0.00    +0.000 A 
ATOM      8  N   UNL     1     -42.392  -6.574 -27.026  0.00  0.00    +0.000 N 
ATOM      9  C   UNL     1     -42.872  -7.009 -25.832  0.00  0.00    +0.000 A 
ATOM     10  O   UNL     1     -42.087  -7.169 -24.861  0.00  0.00    +0.000 OA
ATOM     11  C   UNL     1     -44.231  -7.280 -25.678  0.00  0.00    +0.000 A 
ATOM     12  H   UNL     1     -41.430  -6.388 -27.118  0.00  0.00    +0.000 HD
ENDROOT
BRANCH   1  14
ATOM     13  N   UNL     1     -47.396  -6.620 -25.725  0.00  0.00    +0.000 N 
ATOM     14  C   UNL     1     -46.546  -7.423 -26.557  0.00  0.00    +0.000 C 
ATOM     15  O   UNL     1     -47.025  -8.467 -27.073  0.00  0.00    +0.000 OA
ATOM     16  H   UNL     1     -48.119  -7.085 -25.245  0.00  0.00    +0.000 HD
BRANCH  13  19
ATOM     17  C   UNL     1     -47.126  -3.325 -23.987  0.00  0.00    +0.000 A 
ATOM     18  C   UNL     1     -47.198  -4.706 -24.224  0.00  0.00    +0.000 A 
ATOM     19  C   UNL     1     -47.291  -5.204 -25.528  0.00  0.00    +0.000 A 
ATOM     20  C   UNL     1     -47.340  -4.308 -26.605  0.00  0.00    +0.000 A 
ATOM     21  C   UNL     1     -47.269  -2.931 -26.380  0.00  0.00    +0.000 A 
ATOM     22  C   UNL     1     -47.161  -2.442 -25.075  0.00  0.00    +0.000 A 
BRANCH  17  24
ATOM     23  C   UNL     1     -47.164  -1.361 -22.307  0.00  0.00    +0.000 C 
ATOM     24  C   UNL     1     -47.018  -2.816 -22.606  0.00  0.00    +0.000 C 
ATOM     25  O   UNL     1     -46.799  -3.611 -21.653  0.00  0.00    +0.000 OA
ENDBRANCH  17  24
ENDBRANCH  13  19
ENDBRANCH   1  14
BRANCH   6  26
ATOM     26  S   UNL     1     -45.913  -5.738 -31.706  0.00  0.00    +0.000 S 
ATOM     27  O   UNL     1     -47.278  -6.291 -31.402  0.00  0.00    +0.000 OA
ATOM     28  O   UNL     1     -45.346  -6.476 -32.888  0.00  0.00    +0.000 OA
BRANCH  26  29
ATOM     29  N   UNL     1     -46.032  -4.044 -32.061  0.00  0.00    +0.000 NA
ATOM     30  C   UNL     1     -45.199  -3.775 -33.235  0.00  0.00    +0.000 C 
ATOM     31  C   UNL     1     -45.111  -2.264 -33.465  0.00  0.00    +0.000 C 
ATOM     32  O   UNL     1     -44.518  -1.647 -32.348  0.00  0.00    +0.000 OA
ATOM     33  C   UNL     1     -45.398  -1.821 -31.263  0.00  0.00    +0.000 C 
ATOM     34  C   UNL     1     -45.500  -3.307 -30.913  0.00  0.00    +0.000 C 
ENDBRANCH  26  29
ENDBRANCH   6  26
TORSDOF 5
ENDMDL
MODEL 2
REMARK VINA RESULT:      -7.4     11.481     13.780
REMARK  Name = ZINC000016045159 CSC026732198 MCULE-2825595349 MolPort-005-315-093
REMARK  5 active torsions:
REMARK  status: ('A' for Active; 'I' for Inactive)
REMARK    1  A    between atoms: C_1  and  C_14
REMARK    2  A    between atoms: C_6  and  S_26
REMARK    3  A    between atoms: N_13  and  C_19
REMARK    4  A    between atoms: C_17  and  C_24
REMARK    5  A    between atoms: S_26  and  N_29
REMARK                            x       y       z     vdW  Elec       q    Type
REMARK                         _______ _______ _______ _____ _____    ______ ____
ROOT
ATOM      1  C   UNL     1     -45.056 -19.010 -20.003  0.00  0.00    +0.000 A 
ATOM      2  C   UNL     1     -44.409 -19.079 -21.258  0.00  0.00    +0.000 A 
ATOM      3  C   UNL     1     -43.041 -19.435 -21.306  0.00  0.00    +0.000 A 
ATOM      4  C   UNL     1     -42.376 -19.503 -22.533  0.00  0.00    +0.000 A 
ATOM      5  C   UNL     1     -43.057 -19.213 -23.717  0.00  0.00    +0.000 A 
ATOM      6  C   UNL     1     -44.406 -18.848 -23.680  0.00  0.00    +0.000 A 
ATOM      7  C   UNL     1     -45.078 -18.782 -22.455  0.00  0.00    +0.000 A 
ATOM      8  N   UNL     1     -42.366 -19.711 -20.158  0.00  0.00    +0.000 N 
ATOM      9  C   UNL     1     -42.973 -19.654 -18.945  0.00  0.00    +0.000 A 
ATOM     10  O   UNL     1     -42.317 -19.915 -17.903  0.00  0.00    +0.000 OA
ATOM     11  C   UNL     1     -44.320 -19.308 -18.849  0.00  0.00    +0.000 A 
ATOM     12  H   UNL     1     -41.415 -19.957 -20.209  0.00  0.00    +0.000 HD
ENDROOT
BRANCH   1  14
ATOM     13  N   UNL     1     -46.923 -17.425 -19.296  0.00  0.00    +0.000 N 
ATOM     14  C   UNL     1     -46.493 -18.671 -19.862  0.00  0.00    +0.000 C 
ATOM     15  O   UNL     1     -47.366 -19.520 -20.181  0.00  0.00    +0.000 OA
ATOM     16  H   UNL     1     -47.768 -17.434 -18.789  0.00  0.00    +0.000 HD
BRANCH  13  19
ATOM     17  C   UNL     1     -45.520 -14.100 -18.335  0.00  0.00    +0.000 A 
ATOM     18  C   UNL     1     -46.152 -15.351 -18.268  0.00  0.00    +0.000 A 
ATOM     19  C   UNL     1     -46.240 -16.169 -19.399  0.00  0.00    +0.000 A 
ATOM     20  C   UNL     1     -45.715 -15.718 -20.618  0.00  0.00    +0.000 A 
ATOM     21  C   UNL     1     -45.084 -14.474 -20.696  0.00  0.00    +0.000 A 
ATOM     22  C   UNL     1     -44.985 -13.669 -19.558  0.00  0.00    +0.000 A 
BRANCH  17  24
ATOM     23  C   UNL     1     -45.318 -11.768 -17.239  0.00  0.00    +0.000 C 
ATOM     24  C   UNL     1     -45.425 -13.252 -17.131  0.00  0.00    +0.000 C 
ATOM     25  O   UNL     1     -45.435 -13.777 -15.985  0.00  0.00    +0.000 OA
ENDBRANCH  17  24
ENDBRANCH  13  19
ENDBRANCH   1  14
BRANCH   6  26
ATOM     26  S   UNL     1     -45.261 -18.500 -25.174  0.00  0.00    +0.000 S 
ATOM     27  O   UNL     1     -46.699 -18.912 -25.021  0.00  0.00    +0.000 OA
ATOM     28  O   UNL     1     -44.650 -19.287 -26.300  0.00  0.00    +0.000 OA
BRANCH  26  29
ATOM     29  N   UNL     1     -45.172 -16.800 -25.516  0.00  0.00    +0.000 NA
ATOM     30  C   UNL     1     -43.875 -16.317 -25.038  0.00  0.00    +0.000 C 
ATOM     31  C   UNL     1     -43.832 -14.790 -25.135  0.00  0.00    +0.000 C 
ATOM     32  O   UNL     1     -44.840 -14.233 -24.326  0.00  0.00    +0.000 OA
ATOM     33  C   UNL     1     -46.075 -14.619 -24.879  0.00  0.00    +0.000 C 
ATOM     34  C   UNL     1     -46.240 -16.136 -24.767  0.00  0.00    +0.000 C 
ENDBRANCH  26  29
ENDBRANCH   6  26
TORSDOF 5
ENDMDL
MODEL 3
REMARK VINA RESULT:      -7.3     11.217     13.690
REMARK  Name = ZINC000016045159 CSC026732198 MCULE-2825595349 MolPort-005-315-093
REMARK  5 active torsions:
REMARK  status: ('A' for Active; 'I' for Inactive)
REMARK    1  A    between atoms: C_1  and  C_14
REMARK    2  A    between atoms: C_6  and  S_26
REMARK    3  A    between atoms: N_13  and  C_19
REMARK    4  A    between atoms: C_17  and  C_24
REMARK    5  A    between atoms: S_26  and  N_29
REMARK                            x       y       z     vdW  Elec       q    Type
REMARK                         _______ _______ _______ _____ _____    ______ ____
ROOT
ATOM      1  C   UNL     1     -44.850 -19.094 -19.988  0.00  0.00    +0.000 A 
ATOM      2  C   UNL     1     -44.249 -19.186 -21.264  0.00  0.00    +0.000 A 
ATOM      3  C   UNL     1     -42.935 -19.700 -21.368  0.00  0.00    +0.000 A 
ATOM      4  C   UNL     1     -42.316 -19.795 -22.617  0.00  0.00    +0.000 A 
ATOM      5  C   UNL     1     -42.989 -19.377 -23.768  0.00  0.00    +0.000 A 
ATOM      6  C   UNL     1     -44.282 -18.857 -23.674  0.00  0.00    +0.000 A 
ATOM      7  C   UNL     1     -44.909 -18.763 -22.428  0.00  0.00    +0.000 A 
ATOM      8  N   UNL     1     -42.268 -20.101 -20.254  0.00  0.00    +0.000 N 
ATOM      9  C   UNL     1     -42.831 -20.023 -19.021  0.00  0.00    +0.000 A 
ATOM     10  O   UNL     1     -42.184 -20.403 -18.010  0.00  0.00    +0.000 OA
ATOM     11  C   UNL     1     -44.124 -19.524 -18.870  0.00  0.00    +0.000 A 
ATOM     12  H   UNL     1     -41.354 -20.456 -20.344  0.00  0.00    +0.000 HD
ENDROOT
BRANCH   1  14
ATOM     13  N   UNL     1     -46.493 -17.289 -19.251  0.00  0.00    +0.000 N 
ATOM     14  C   UNL     1     -46.231 -18.593 -19.790  0.00  0.00    +0.000 C 
ATOM     15  O   UNL     1     -47.208 -19.349 -20.032  0.00  0.00    +0.000 OA
ATOM     16  H   UNL     1     -47.304 -17.187 -18.702  0.00  0.00    +0.000 HD
BRANCH  13  19
ATOM     17  C   UNL     1     -45.108 -14.180 -20.790  0.00  0.00    +0.000 A 
ATOM     18  C   UNL     1     -45.901 -15.315 -20.556  0.00  0.00    +0.000 A 
ATOM     19  C   UNL     1     -45.683 -16.120 -19.435  0.00  0.00    +0.000 A 
ATOM     20  C   UNL     1     -44.642 -15.803 -18.551  0.00  0.00    +0.000 A 
ATOM     21  C   UNL     1     -43.847 -14.677 -18.773  0.00  0.00    +0.000 A 
ATOM     22  C   UNL     1     -44.081 -13.867 -19.888  0.00  0.00    +0.000 A 
BRANCH  17  24
ATOM     23  C   UNL     1     -44.252 -12.562 -22.614  0.00  0.00    +0.000 C 
ATOM     24  C   UNL     1     -45.356 -13.334 -21.973  0.00  0.00    +0.000 C 
ATOM     25  O   UNL     1     -46.515 -13.252 -22.461  0.00  0.00    +0.000 OA
ENDBRANCH  17  24
ENDBRANCH  13  19
ENDBRANCH   1  14
BRANCH   6  26
ATOM     26  S   UNL     1     -45.130 -18.348 -25.126  0.00  0.00    +0.000 S 
ATOM     27  O   UNL     1     -46.594 -18.652 -24.970  0.00  0.00    +0.000 OA
ATOM     28  O   UNL     1     -44.602 -19.110 -26.311  0.00  0.00    +0.000 OA
BRANCH  26  29
ATOM     29  N   UNL     1     -44.908 -16.643 -25.366  0.00  0.00    +0.000 NA
ATOM     30  C   UNL     1     -46.196 -15.988 -25.127  0.00  0.00    +0.000 C 
ATOM     31  C   UNL     1     -46.099 -14.512 -25.523  0.00  0.00    +0.000 C 
ATOM     32  O   UNL     1     -45.793 -14.406 -26.892  0.00  0.00    +0.000 OA
ATOM     33  C   UNL     1     -44.502 -14.937 -27.070  0.00  0.00    +0.000 C 
ATOM     34  C   UNL     1     -44.512 -16.435 -26.761  0.00  0.00    +0.000 C 
ENDBRANCH  26  29
ENDBRANCH   6  26
TORSDOF 5
ENDMDL
