MODEL 1
REMARK VINA RESULT:      -6.6      0.000      0.000
REMARK  Name = ZINC000015841380 ZINC15841380 ChemDiv-D468-2065 MCULE-3603103277 MolPort-004-901-220 PubChem-20897503
REMARK  2 active torsions:
REMARK  status: ('A' for Active; 'I' for Inactive)
REMARK    1  A    between atoms: C_10  and  C_14
REMARK    2  A    between atoms: N_16  and  C_18
REMARK                            x       y       z     vdW  Elec       q    Type
REMARK                         _______ _______ _______ _____ _____    ______ ____
ROOT
ATOM      1  C   UNL     1     -41.998  -7.420 -28.796  0.00  0.00    +0.000 C 
ATOM      2  C   UNL     1     -43.295  -6.700 -28.943  0.00  0.00    +0.000 A 
ATOM      3  C   UNL     1     -44.181  -6.551 -27.857  0.00  0.00    +0.000 A 
ATOM      4  C   UNL     1     -43.862  -7.106 -26.511  0.00  0.00    +0.000 C 
ATOM      5  C   UNL     1     -45.389  -5.869 -28.034  0.00  0.00    +0.000 A 
ATOM      6  C   UNL     1     -45.723  -5.333 -29.284  0.00  0.00    +0.000 A 
ATOM      7  C   UNL     1     -46.924  -4.645 -29.497  0.00  0.00    +0.000 A 
ATOM      8  O   UNL     1     -47.756  -4.483 -28.565  0.00  0.00    +0.000 OA
ATOM      9  C   UNL     1     -47.197  -4.128 -30.763  0.00  0.00    +0.000 A 
ATOM     10  C   UNL     1     -46.265  -4.309 -31.793  0.00  0.00    +0.000 A 
ATOM     11  O   UNL     1     -45.138  -4.979 -31.561  0.00  0.00    +0.000 OA
ATOM     12  C   UNL     1     -44.835  -5.484 -30.370  0.00  0.00    +0.000 A 
ATOM     13  C   UNL     1     -43.629  -6.166 -30.192  0.00  0.00    +0.000 A 
ENDROOT
BRANCH  10  14
ATOM     14  C   UNL     1     -46.538  -3.771 -33.142  0.00  0.00    +0.000 C 
ATOM     15  O   UNL     1     -47.687  -3.900 -33.640  0.00  0.00    +0.000 OA
ATOM     16  N   UNL     1     -45.509  -3.159 -33.933  0.00  0.00    +0.000 N 
ATOM     17  H   UNL     1     -45.558  -3.292 -34.908  0.00  0.00    +0.000 HD
BRANCH  16  18
ATOM     18  C   UNL     1     -44.419  -2.373 -33.438  0.00  0.00    +0.000 A 
ATOM     19  C   UNL     1     -43.086  -2.802 -33.580  0.00  0.00    +0.000 A 
ATOM     20  C   UNL     1     -42.055  -2.019 -33.065  0.00  0.00    +0.000 A 
ATOM     21  N   UNL     1     -40.749  -2.361 -33.178  0.00  0.00    +0.000 NA
ATOM     22  S   UNL     1     -40.051  -1.078 -32.398  0.00  0.00    +0.000 S 
ATOM     23  N   UNL     1     -41.293  -0.097 -31.913  0.00  0.00    +0.000 NA
ATOM     24  C   UNL     1     -42.348  -0.805 -32.386  0.00  0.00    +0.000 A 
ATOM     25  C   UNL     1     -43.669  -0.389 -32.227  0.00  0.00    +0.000 A 
ATOM     26  C   UNL     1     -44.700  -1.181 -32.751  0.00  0.00    +0.000 A 
ENDBRANCH  16  18
ENDBRANCH  10  14
TORSDOF 2
ENDMDL
MODEL 2
REMARK VINA RESULT:      -6.6     15.178     17.382
REMARK  Name = ZINC000015841380 ZINC15841380 ChemDiv-D468-2065 MCULE-3603103277 MolPort-004-901-220 PubChem-20897503
REMARK  2 active torsions:
REMARK  status: ('A' for Active; 'I' for Inactive)
REMARK    1  A    between atoms: C_10  and  C_14
REMARK    2  A    between atoms: N_16  and  C_18
REMARK                            x       y       z     vdW  Elec       q    Type
REMARK                         _______ _______ _______ _____ _____    ______ ____
ROOT
ATOM      1  C   UNL     1     -40.198 -17.661 -27.342  0.00  0.00    +0.000 C 
ATOM      2  C   UNL     1     -41.531 -18.025 -26.779  0.00  0.00    +0.000 A 
ATOM      3  C   UNL     1     -42.180 -19.221 -27.142  0.00  0.00    +0.000 A 
ATOM      4  C   UNL     1     -41.566 -20.180 -28.105  0.00  0.00    +0.000 C 
ATOM      5  C   UNL     1     -43.429 -19.529 -26.592  0.00  0.00    +0.000 A 
ATOM      6  C   UNL     1     -44.037 -18.653 -25.684  0.00  0.00    +0.000 A 
ATOM      7  C   UNL     1     -45.287 -18.928 -25.115  0.00  0.00    +0.000 A 
ATOM      8  O   UNL     1     -45.917 -19.981 -25.404  0.00  0.00    +0.000 OA
ATOM      9  C   UNL     1     -45.839 -18.022 -24.211  0.00  0.00    +0.000 A 
ATOM     10  C   UNL     1     -45.131 -16.855 -23.892  0.00  0.00    +0.000 A 
ATOM     11  O   UNL     1     -43.950 -16.617 -24.460  0.00  0.00    +0.000 OA
ATOM     12  C   UNL     1     -43.385 -17.456 -25.323  0.00  0.00    +0.000 A 
ATOM     13  C   UNL     1     -42.138 -17.150 -25.873  0.00  0.00    +0.000 A 
ENDROOT
BRANCH  10  14
ATOM     14  C   UNL     1     -45.699 -15.881 -22.938  0.00  0.00    +0.000 C 
ATOM     15  O   UNL     1     -46.454 -14.967 -23.363  0.00  0.00    +0.000 OA
ATOM     16  N   UNL     1     -45.363 -15.904 -21.544  0.00  0.00    +0.000 N 
ATOM     17  H   UNL     1     -45.311 -15.036 -21.083  0.00  0.00    +0.000 HD
BRANCH  16  18
ATOM     18  C   UNL     1     -45.098 -17.073 -20.759  0.00  0.00    +0.000 A 
ATOM     19  C   UNL     1     -43.781 -17.499 -20.506  0.00  0.00    +0.000 A 
ATOM     20  C   UNL     1     -43.566 -18.655 -19.757  0.00  0.00    +0.000 A 
ATOM     21  N   UNL     1     -42.327 -19.116 -19.461  0.00  0.00    +0.000 NA
ATOM     22  S   UNL     1     -42.727 -20.463 -18.585  0.00  0.00    +0.000 S 
ATOM     23  N   UNL     1     -44.381 -20.518 -18.546  0.00  0.00    +0.000 NA
ATOM     24  C   UNL     1     -44.669 -19.406 -19.267  0.00  0.00    +0.000 A 
ATOM     25  C   UNL     1     -45.974 -18.997 -19.535  0.00  0.00    +0.000 A 
ATOM     26  C   UNL     1     -46.182 -17.832 -20.287  0.00  0.00    +0.000 A 
ENDBRANCH  16  18
ENDBRANCH  10  14
TORSDOF 2
ENDMDL
MODEL 3
REMARK VINA RESULT:      -6.2     11.521     14.562
REMARK  Name = ZINC000015841380 ZINC15841380 ChemDiv-D468-2065 MCULE-3603103277 MolPort-004-901-220 PubChem-20897503
REMARK  2 active torsions:
REMARK  status: ('A' for Active; 'I' for Inactive)
REMARK    1  A    between atoms: C_10  and  C_14
REMARK    2  A    between atoms: N_16  and  C_18
REMARK                            x       y       z     vdW  Elec       q    Type
REMARK                         _______ _______ _______ _____ _____    ______ ____
ROOT
ATOM      1  C   UNL     1     -46.770 -13.207 -20.104  0.00  0.00    +0.000 C 
ATOM      2  C   UNL     1     -46.317 -14.593 -20.413  0.00  0.00    +0.000 A 
ATOM      3  C   UNL     1     -45.992 -15.507 -19.391  0.00  0.00    +0.000 A 
ATOM      4  C   UNL     1     -46.087 -15.130 -17.952  0.00  0.00    +0.000 C 
ATOM      5  C   UNL     1     -45.571 -16.799 -19.721  0.00  0.00    +0.000 A 
ATOM      6  C   UNL     1     -45.471 -17.190 -21.062  0.00  0.00    +0.000 A 
ATOM      7  C   UNL     1     -45.053 -18.475 -21.429  0.00  0.00    +0.000 A 
ATOM      8  O   UNL     1     -44.746 -19.334 -20.559  0.00  0.00    +0.000 OA
ATOM      9  C   UNL     1     -44.980 -18.808 -22.781  0.00  0.00    +0.000 A 
ATOM     10  C   UNL     1     -45.326 -17.849 -23.742  0.00  0.00    +0.000 A 
ATOM     11  O   UNL     1     -45.707 -16.631 -23.361  0.00  0.00    +0.000 OA
ATOM     12  C   UNL     1     -45.796 -16.273 -22.084  0.00  0.00    +0.000 A 
ATOM     13  C   UNL     1     -46.216 -14.983 -21.753  0.00  0.00    +0.000 A 
ENDROOT
BRANCH  10  14
ATOM     14  C   UNL     1     -45.252 -18.181 -25.180  0.00  0.00    +0.000 C 
ATOM     15  O   UNL     1     -45.760 -19.257 -25.594  0.00  0.00    +0.000 OA
ATOM     16  N   UNL     1     -44.559 -17.343 -26.114  0.00  0.00    +0.000 N 
ATOM     17  H   UNL     1     -44.100 -17.791 -26.861  0.00  0.00    +0.000 HD
BRANCH  16  18
ATOM     18  C   UNL     1     -44.473 -15.914 -26.064  0.00  0.00    +0.000 A 
ATOM     19  C   UNL     1     -45.600 -15.106 -26.305  0.00  0.00    +0.000 A 
ATOM     20  C   UNL     1     -45.470 -13.719 -26.269  0.00  0.00    +0.000 A 
ATOM     21  N   UNL     1     -46.513 -12.879 -26.476  0.00  0.00    +0.000 NA
ATOM     22  S   UNL     1     -45.743 -11.423 -26.308  0.00  0.00    +0.000 S 
ATOM     23  N   UNL     1     -44.157 -11.769 -25.988  0.00  0.00    +0.000 NA
ATOM     24  C   UNL     1     -44.206 -13.124 -26.007  0.00  0.00    +0.000 A 
ATOM     25  C   UNL     1     -43.084 -13.923 -25.789  0.00  0.00    +0.000 A 
ATOM     26  C   UNL     1     -43.224 -15.318 -25.824  0.00  0.00    +0.000 A 
ENDBRANCH  16  18
ENDBRANCH  10  14
TORSDOF 2
ENDMDL
