MODEL 1
REMARK VINA RESULT:      -7.7      0.000      0.000
REMARK  Name = ZINC000217755306
REMARK  10 active torsions:
REMARK  status: ('A' for Active; 'I' for Inactive)
REMARK    1  A    between atoms: C_1  and  C_2
REMARK    2  A    between atoms: C_1  and  C_15
REMARK    3  A    between atoms: C_1  and  C_25
REMARK    4  A    between atoms: C_3  and  O_4
REMARK    5  A    between atoms: C_25  and  C_27
REMARK    6  A    between atoms: N_28  and  C_30
REMARK    7  A    between atoms: C_30  and  C_31
REMARK    8  A    between atoms: C_31  and  C_32
REMARK    9  A    between atoms: C_35  and  O_36
REMARK   10  A    between atoms: C_37  and  O_38
REMARK                            x       y       z     vdW  Elec       q    Type
REMARK                         _______ _______ _______ _____ _____    ______ ____
ROOT
ATOM      1  C   UNL     1     -46.058  -5.654 -30.098  0.00  0.00    +0.000 C 
ENDROOT
BRANCH   1   2
ATOM      2  C   UNL     1     -45.073  -4.682 -30.698  0.00  0.00    +0.000 A 
ATOM      3  C   UNL     1     -43.738  -5.073 -30.844  0.00  0.00    +0.000 A 
ATOM      4  N   UNL     1     -42.830  -4.212 -31.365  0.00  0.00    +0.000 NA
ATOM      5  C   UNL     1     -43.184  -2.963 -31.753  0.00  0.00    +0.000 A 
ATOM      6  C   UNL     1     -42.211  -2.111 -32.283  0.00  0.00    +0.000 A 
ATOM      7  C   UNL     1     -42.569  -0.827 -32.685  0.00  0.00    +0.000 A 
ATOM      8  C   UNL     1     -43.891  -0.405 -32.557  0.00  0.00    +0.000 A 
ATOM      9  C   UNL     1     -44.839  -1.279 -32.025  0.00  0.00    +0.000 A 
ATOM     10  N   UNL     1     -44.487  -2.540 -31.629  0.00  0.00    +0.000 N 
ATOM     11  C   UNL     1     -45.434  -3.383 -31.109  0.00  0.00    +0.000 A 
ATOM     12  O   UNL     1     -46.634  -3.000 -31.002  0.00  0.00    +0.000 OA
BRANCH   3  13
ATOM     13  O   UNL     1     -43.327  -6.344 -30.459  0.00  0.00    +0.000 OA
ATOM     14  H   UNL     1     -43.743  -7.101 -30.822  0.00  0.00    +0.000 HD
ENDBRANCH   3  13
ENDBRANCH   1   2
BRANCH   1  15
ATOM     15  C   UNL     1     -46.430  -5.321 -28.673  0.00  0.00    +0.000 A 
ATOM     16  C   UNL     1     -47.280  -4.242 -28.402  0.00  0.00    +0.000 A 
ATOM     17  C   UNL     1     -47.630  -3.944 -27.084  0.00  0.00    +0.000 A 
ATOM     18  N   UNL     1     -47.150  -4.698 -26.061  0.00  0.00    +0.000 NA
ATOM     19  C   UNL     1     -46.325  -5.756 -26.282  0.00  0.00    +0.000 A 
ATOM     20  C   UNL     1     -45.858  -6.511 -25.203  0.00  0.00    +0.000 A 
ATOM     21  C   UNL     1     -45.014  -7.603 -25.426  0.00  0.00    +0.000 A 
ATOM     22  C   UNL     1     -44.635  -7.944 -26.727  0.00  0.00    +0.000 A 
ATOM     23  C   UNL     1     -45.098  -7.194 -27.811  0.00  0.00    +0.000 A 
ATOM     24  C   UNL     1     -45.944  -6.095 -27.602  0.00  0.00    +0.000 A 
ENDBRANCH   1  15
BRANCH   1  25
ATOM     25  C   UNL     1     -47.261  -5.930 -30.998  0.00  0.00    +0.000 C 
BRANCH  25  27
ATOM     26  O   UNL     1     -47.186  -7.800 -32.469  0.00  0.00    +0.000 OA
ATOM     27  C   UNL     1     -47.371  -7.387 -31.293  0.00  0.00    +0.000 C 
ATOM     28  N   UNL     1     -47.639  -8.305 -30.231  0.00  0.00    +0.000 N 
ATOM     29  H   UNL     1     -47.770  -7.951 -29.322  0.00  0.00    +0.000 HD
BRANCH  28  30
ATOM     30  C   UNL     1     -47.726  -9.742 -30.440  0.00  0.00    +0.000 C 
BRANCH  30  31
ATOM     31  C   UNL     1     -46.362 -10.382 -30.242  0.00  0.00    +0.000 C 
BRANCH  31  32
ATOM     32  C   UNL     1     -46.386 -11.317 -29.082  0.00  0.00    +0.000 A 
ATOM     33  C   UNL     1     -46.249 -12.697 -29.277  0.00  0.00    +0.000 A 
ATOM     34  C   UNL     1     -46.256 -13.564 -28.180  0.00  0.00    +0.000 A 
ATOM     35  C   UNL     1     -46.398 -13.054 -26.886  0.00  0.00    +0.000 A 
ATOM     36  C   UNL     1     -46.529 -11.674 -26.688  0.00  0.00    +0.000 A 
ATOM     37  C   UNL     1     -46.520 -10.808 -27.786  0.00  0.00    +0.000 A 
BRANCH  36  38
ATOM     38  O   UNL     1     -46.666 -11.156 -25.407  0.00  0.00    +0.000 OA
ATOM     39  H   UNL     1     -47.409 -10.625 -25.193  0.00  0.00    +0.000 HD
ENDBRANCH  36  38
BRANCH  35  40
ATOM     40  O   UNL     1     -46.406 -13.923 -25.802  0.00  0.00    +0.000 OA
ATOM     41  H   UNL     1     -45.604 -14.303 -25.500  0.00  0.00    +0.000 HD
ENDBRANCH  35  40
ENDBRANCH  31  32
ENDBRANCH  30  31
ENDBRANCH  28  30
ENDBRANCH  25  27
ENDBRANCH   1  25
TORSDOF 10
ENDMDL
MODEL 2
REMARK VINA RESULT:      -7.7      0.841      1.800
REMARK  Name = ZINC000217755306
REMARK  10 active torsions:
REMARK  status: ('A' for Active; 'I' for Inactive)
REMARK    1  A    between atoms: C_1  and  C_2
REMARK    2  A    between atoms: C_1  and  C_15
REMARK    3  A    between atoms: C_1  and  C_25
REMARK    4  A    between atoms: C_3  and  O_4
REMARK    5  A    between atoms: C_25  and  C_27
REMARK    6  A    between atoms: N_28  and  C_30
REMARK    7  A    between atoms: C_30  and  C_31
REMARK    8  A    between atoms: C_31  and  C_32
REMARK    9  A    between atoms: C_35  and  O_36
REMARK   10  A    between atoms: C_37  and  O_38
REMARK                            x       y       z     vdW  Elec       q    Type
REMARK                         _______ _______ _______ _____ _____    ______ ____
ROOT
ATOM      1  C   UNL     1     -46.018  -5.700 -30.330  0.00  0.00    +0.000 C 
ENDROOT
BRANCH   1   2
ATOM      2  C   UNL     1     -45.501  -4.380 -30.846  0.00  0.00    +0.000 A 
ATOM      3  C   UNL     1     -46.387  -3.303 -30.961  0.00  0.00    +0.000 A 
ATOM      4  N   UNL     1     -45.951  -2.112 -31.438  0.00  0.00    +0.000 NA
ATOM      5  C   UNL     1     -44.661  -1.931 -31.814  0.00  0.00    +0.000 A 
ATOM      6  C   UNL     1     -44.260  -0.685 -32.301  0.00  0.00    +0.000 A 
ATOM      7  C   UNL     1     -42.936  -0.493 -32.688  0.00  0.00    +0.000 A 
ATOM      8  C   UNL     1     -42.027  -1.543 -32.585  0.00  0.00    +0.000 A 
ATOM      9  C   UNL     1     -42.458  -2.776 -32.094  0.00  0.00    +0.000 A 
ATOM     10  N   UNL     1     -43.758  -2.964 -31.715  0.00  0.00    +0.000 N 
ATOM     11  C   UNL     1     -44.161  -4.183 -31.235  0.00  0.00    +0.000 A 
ATOM     12  O   UNL     1     -43.330  -5.130 -31.134  0.00  0.00    +0.000 OA
BRANCH   3  13
ATOM     13  O   UNL     1     -47.719  -3.441 -30.588  0.00  0.00    +0.000 OA
ATOM     14  H   UNL     1     -48.391  -3.020 -31.088  0.00  0.00    +0.000 HD
ENDBRANCH   3  13
ENDBRANCH   1   2
BRANCH   1  15
ATOM     15  C   UNL     1     -45.996  -5.800 -28.824  0.00  0.00    +0.000 A 
ATOM     16  C   UNL     1     -46.832  -4.984 -28.052  0.00  0.00    +0.000 A 
ATOM     17  C   UNL     1     -46.817  -5.086 -26.661  0.00  0.00    +0.000 A 
ATOM     18  N   UNL     1     -45.994  -5.978 -26.049  0.00  0.00    +0.000 NA
ATOM     19  C   UNL     1     -45.170  -6.791 -26.762  0.00  0.00    +0.000 A 
ATOM     20  C   UNL     1     -44.344  -7.700 -26.096  0.00  0.00    +0.000 A 
ATOM     21  C   UNL     1     -43.498  -8.542 -26.824  0.00  0.00    +0.000 A 
ATOM     22  C   UNL     1     -43.477  -8.479 -28.220  0.00  0.00    +0.000 A 
ATOM     23  C   UNL     1     -44.301  -7.574 -28.893  0.00  0.00    +0.000 A 
ATOM     24  C   UNL     1     -45.153  -6.722 -28.175  0.00  0.00    +0.000 A 
ENDBRANCH   1  15
BRANCH   1  25
ATOM     25  C   UNL     1     -47.349  -6.115 -30.954  0.00  0.00    +0.000 C 
BRANCH  25  27
ATOM     26  O   UNL     1     -47.127  -7.933 -32.474  0.00  0.00    +0.000 OA
ATOM     27  C   UNL     1     -47.342  -7.567 -31.288  0.00  0.00    +0.000 C 
ATOM     28  N   UNL     1     -47.532  -8.532 -30.250  0.00  0.00    +0.000 N 
ATOM     29  H   UNL     1     -47.689  -8.213 -29.332  0.00  0.00    +0.000 HD
BRANCH  28  30
ATOM     30  C   UNL     1     -47.503  -9.965 -30.497  0.00  0.00    +0.000 C 
BRANCH  30  31
ATOM     31  C   UNL     1     -46.132 -10.525 -30.159  0.00  0.00    +0.000 C 
BRANCH  31  32
ATOM     32  C   UNL     1     -46.209 -11.419 -28.970  0.00  0.00    +0.000 A 
ATOM     33  C   UNL     1     -46.114 -12.808 -29.115  0.00  0.00    +0.000 A 
ATOM     34  C   UNL     1     -46.172 -13.637 -27.991  0.00  0.00    +0.000 A 
ATOM     35  C   UNL     1     -46.323 -13.079 -26.717  0.00  0.00    +0.000 A 
ATOM     36  C   UNL     1     -46.413 -11.689 -26.569  0.00  0.00    +0.000 A 
ATOM     37  C   UNL     1     -46.353 -10.862 -27.695  0.00  0.00    +0.000 A 
BRANCH  36  38
ATOM     38  O   UNL     1     -46.559 -11.125 -25.308  0.00  0.00    +0.000 OA
ATOM     39  H   UNL     1     -45.959 -10.465 -25.018  0.00  0.00    +0.000 HD
ENDBRANCH  36  38
BRANCH  35  40
ATOM     40  O   UNL     1     -46.381 -13.910 -25.605  0.00  0.00    +0.000 OA
ATOM     41  H   UNL     1     -45.612 -14.360 -25.316  0.00  0.00    +0.000 HD
ENDBRANCH  35  40
ENDBRANCH  31  32
ENDBRANCH  30  31
ENDBRANCH  28  30
ENDBRANCH  25  27
ENDBRANCH   1  25
TORSDOF 10
ENDMDL
MODEL 3
REMARK VINA RESULT:      -7.5      4.939      9.136
REMARK  Name = ZINC000217755306
REMARK  10 active torsions:
REMARK  status: ('A' for Active; 'I' for Inactive)
REMARK    1  A    between atoms: C_1  and  C_2
REMARK    2  A    between atoms: C_1  and  C_15
REMARK    3  A    between atoms: C_1  and  C_25
REMARK    4  A    between atoms: C_3  and  O_4
REMARK    5  A    between atoms: C_25  and  C_27
REMARK    6  A    between atoms: N_28  and  C_30
REMARK    7  A    between atoms: C_30  and  C_31
REMARK    8  A    between atoms: C_31  and  C_32
REMARK    9  A    between atoms: C_35  and  O_36
REMARK   10  A    between atoms: C_37  and  O_38
REMARK                            x       y       z     vdW  Elec       q    Type
REMARK                         _______ _______ _______ _____ _____    ______ ____
ROOT
ATOM      1  C   UNL     1     -45.220  -4.678 -32.701  0.00  0.00    +0.000 C 
ENDROOT
BRANCH   1   2
ATOM      2  C   UNL     1     -45.690  -4.732 -31.268  0.00  0.00    +0.000 A 
ATOM      3  C   UNL     1     -46.636  -3.801 -30.828  0.00  0.00    +0.000 A 
ATOM      4  N   UNL     1     -47.061  -3.818 -29.541  0.00  0.00    +0.000 NA
ATOM      5  C   UNL     1     -46.586  -4.726 -28.654  0.00  0.00    +0.000 A 
ATOM      6  C   UNL     1     -47.054  -4.702 -27.338  0.00  0.00    +0.000 A 
ATOM      7  C   UNL     1     -46.570  -5.633 -26.421  0.00  0.00    +0.000 A 
ATOM      8  C   UNL     1     -45.628  -6.576 -26.825  0.00  0.00    +0.000 A 
ATOM      9  C   UNL     1     -45.181  -6.574 -28.147  0.00  0.00    +0.000 A 
ATOM     10  N   UNL     1     -45.656  -5.660 -29.046  0.00  0.00    +0.000 N 
ATOM     11  C   UNL     1     -45.204  -5.675 -30.340  0.00  0.00    +0.000 A 
ATOM     12  O   UNL     1     -44.356  -6.538 -30.705  0.00  0.00    +0.000 OA
BRANCH   3  13
ATOM     13  O   UNL     1     -47.152  -2.851 -31.702  0.00  0.00    +0.000 OA
ATOM     14  H   UNL     1     -46.951  -1.944 -31.580  0.00  0.00    +0.000 HD
ENDBRANCH   3  13
ENDBRANCH   1   2
BRANCH   1  15
ATOM     15  C   UNL     1     -43.755  -4.343 -32.835  0.00  0.00    +0.000 A 
ATOM     16  C   UNL     1     -42.821  -5.356 -33.084  0.00  0.00    +0.000 A 
ATOM     17  C   UNL     1     -41.468  -5.042 -33.218  0.00  0.00    +0.000 A 
ATOM     18  N   UNL     1     -41.051  -3.753 -33.108  0.00  0.00    +0.000 NA
ATOM     19  C   UNL     1     -41.926  -2.740 -32.870  0.00  0.00    +0.000 A 
ATOM     20  C   UNL     1     -41.458  -1.426 -32.771  0.00  0.00    +0.000 A 
ATOM     21  C   UNL     1     -42.353  -0.380 -32.532  0.00  0.00    +0.000 A 
ATOM     22  C   UNL     1     -43.719  -0.643 -32.391  0.00  0.00    +0.000 A 
ATOM     23  C   UNL     1     -44.194  -1.953 -32.490  0.00  0.00    +0.000 A 
ATOM     24  C   UNL     1     -43.307  -3.013 -32.728  0.00  0.00    +0.000 A 
ENDBRANCH   1  15
BRANCH   1  25
ATOM     25  C   UNL     1     -45.652  -5.888 -33.525  0.00  0.00    +0.000 C 
BRANCH  25  27
ATOM     26  O   UNL     1     -47.316  -4.434 -34.409  0.00  0.00    +0.000 OA
ATOM     27  C   UNL     1     -46.646  -5.489 -34.562  0.00  0.00    +0.000 C 
ATOM     28  N   UNL     1     -46.794  -6.284 -35.741  0.00  0.00    +0.000 N 
ATOM     29  H   UNL     1     -46.249  -7.098 -35.834  0.00  0.00    +0.000 HD
BRANCH  28  30
ATOM     30  C   UNL     1     -47.719  -5.936 -36.809  0.00  0.00    +0.000 C 
BRANCH  30  31
ATOM     31  C   UNL     1     -47.585  -6.923 -37.957  0.00  0.00    +0.000 C 
BRANCH  31  32
ATOM     32  C   UNL     1     -46.662  -6.393 -38.999  0.00  0.00    +0.000 A 
ATOM     33  C   UNL     1     -45.303  -6.731 -38.985  0.00  0.00    +0.000 A 
ATOM     34  C   UNL     1     -44.448  -6.241 -39.976  0.00  0.00    +0.000 A 
ATOM     35  C   UNL     1     -44.949  -5.414 -40.987  0.00  0.00    +0.000 A 
ATOM     36  C   UNL     1     -46.309  -5.080 -41.006  0.00  0.00    +0.000 A 
ATOM     37  C   UNL     1     -47.163  -5.572 -40.015  0.00  0.00    +0.000 A 
BRANCH  36  38
ATOM     38  O   UNL     1     -46.818  -4.263 -42.007  0.00  0.00    +0.000 OA
ATOM     39  H   UNL     1     -46.761  -4.529 -42.905  0.00  0.00    +0.000 HD
ENDBRANCH  36  38
BRANCH  35  40
ATOM     40  O   UNL     1     -44.092  -4.931 -41.967  0.00  0.00    +0.000 OA
ATOM     41  H   UNL     1     -44.097  -4.019 -42.185  0.00  0.00    +0.000 HD
ENDBRANCH  35  40
ENDBRANCH  31  32
ENDBRANCH  30  31
ENDBRANCH  28  30
ENDBRANCH  25  27
ENDBRANCH   1  25
TORSDOF 10
ENDMDL
