MODEL 1
REMARK VINA RESULT:      -7.2      0.000      0.000
REMARK  Name = ZINC000009910163 ZINC09910163 CSC027488492 MCULE-9624540958 MolPort-005-796-296 PubChem-16372402
REMARK  7 active torsions:
REMARK  status: ('A' for Active; 'I' for Inactive)
REMARK    1  A    between atoms: C_1  and  S_28
REMARK    2  A    between atoms: C_9  and  C_13
REMARK    3  A    between atoms: N_15  and  C_17
REMARK    4  A    between atoms: C_17  and  C_18
REMARK    5  A    between atoms: S_28  and  N_31
REMARK    6  A    between atoms: N_31  and  C_33
REMARK    7  A    between atoms: N_31  and  C_34
REMARK                            x       y       z     vdW  Elec       q    Type
REMARK                         _______ _______ _______ _____ _____    ______ ____
ROOT
ATOM      1  C   UNL     1     -44.335 -18.905 -23.572  0.00  0.00    +0.000 A 
ATOM      2  C   UNL     1     -43.085 -19.525 -23.666  0.00  0.00    +0.000 A 
ATOM      3  C   UNL     1     -42.411 -19.925 -22.511  0.00  0.00    +0.000 A 
ATOM      4  C   UNL     1     -42.983 -19.712 -21.253  0.00  0.00    +0.000 A 
ATOM      5  N   UNL     1     -42.315 -20.096 -20.135  0.00  0.00    +0.000 N 
ATOM      6  C   UNL     1     -42.834 -19.905 -18.895  0.00  0.00    +0.000 A 
ATOM      7  O   UNL     1     -42.187 -20.273 -17.881  0.00  0.00    +0.000 OA
ATOM      8  C   UNL     1     -44.083 -19.303 -18.742  0.00  0.00    +0.000 A 
ATOM      9  C   UNL     1     -44.808 -18.885 -19.864  0.00  0.00    +0.000 A 
ATOM     10  C   UNL     1     -44.253 -19.093 -21.147  0.00  0.00    +0.000 A 
ATOM     11  C   UNL     1     -44.912 -18.688 -22.317  0.00  0.00    +0.000 A 
ATOM     12  H   UNL     1     -41.433 -20.524 -20.226  0.00  0.00    +0.000 HD
ENDROOT
BRANCH   9  13
ATOM     13  C   UNL     1     -46.153 -18.285 -19.666  0.00  0.00    +0.000 C 
ATOM     14  O   UNL     1     -47.175 -18.968 -19.952  0.00  0.00    +0.000 OA
ATOM     15  N   UNL     1     -46.320 -16.957 -19.136  0.00  0.00    +0.000 N 
ATOM     16  C   UNL     1     -47.649 -16.494 -18.761  0.00  0.00    +0.000 C 
BRANCH  15  17
ATOM     17  C   UNL     1     -45.237 -15.979 -19.194  0.00  0.00    +0.000 C 
BRANCH  17  18
ATOM     18  C   UNL     1     -45.616 -14.727 -18.469  0.00  0.00    +0.000 A 
ATOM     19  N   UNL     1     -45.818 -14.662 -17.139  0.00  0.00    +0.000 NA
ATOM     20  N   UNL     1     -46.173 -13.415 -16.863  0.00  0.00    +0.000 NA
ATOM     21  C   UNL     1     -46.204 -12.744 -18.031  0.00  0.00    +0.000 A 
ATOM     22  C   UNL     1     -46.439 -11.264 -18.113  0.00  0.00    +0.000 C 
ATOM     23  C   UNL     1     -47.064 -10.865 -19.443  0.00  0.00    +0.000 C 
ATOM     24  C   UNL     1     -46.021 -10.713 -20.554  0.00  0.00    +0.000 C 
ATOM     25  C   UNL     1     -45.055 -11.895 -20.687  0.00  0.00    +0.000 C 
ATOM     26  C   UNL     1     -45.758 -13.229 -20.484  0.00  0.00    +0.000 C 
ATOM     27  N   UNL     1     -45.848 -13.542 -19.060  0.00  0.00    +0.000 N 
ENDBRANCH  17  18
ENDBRANCH  15  17
ENDBRANCH   9  13
BRANCH   1  28
ATOM     28  S   UNL     1     -45.188 -18.397 -25.019  0.00  0.00    +0.000 S 
ATOM     29  O   UNL     1     -46.648 -18.740 -24.893  0.00  0.00    +0.000 OA
ATOM     30  O   UNL     1     -44.614 -19.127 -26.200  0.00  0.00    +0.000 OA
BRANCH  28  31
ATOM     31  N   UNL     1     -45.001 -16.682 -25.236  0.00  0.00    +0.000 NA
BRANCH  31  33
ATOM     32  C   UNL     1     -44.267 -15.020 -26.849  0.00  0.00    +0.000 C 
ATOM     33  C   UNL     1     -44.776 -16.435 -26.651  0.00  0.00    +0.000 C 
ENDBRANCH  31  33
BRANCH  31  34
ATOM     34  C   UNL     1     -46.267 -16.050 -24.899  0.00  0.00    +0.000 C 
ATOM     35  C   UNL     1     -46.138 -15.317 -23.580  0.00  0.00    +0.000 C 
ENDBRANCH  31  34
ENDBRANCH  28  31
ENDBRANCH   1  28
TORSDOF 7
ENDMDL
MODEL 2
REMARK VINA RESULT:      -7.1      3.979      6.963
REMARK  Name = ZINC000009910163 ZINC09910163 CSC027488492 MCULE-9624540958 MolPort-005-796-296 PubChem-16372402
REMARK  7 active torsions:
REMARK  status: ('A' for Active; 'I' for Inactive)
REMARK    1  A    between atoms: C_1  and  S_28
REMARK    2  A    between atoms: C_9  and  C_13
REMARK    3  A    between atoms: N_15  and  C_17
REMARK    4  A    between atoms: C_17  and  C_18
REMARK    5  A    between atoms: S_28  and  N_31
REMARK    6  A    between atoms: N_31  and  C_33
REMARK    7  A    between atoms: N_31  and  C_34
REMARK                            x       y       z     vdW  Elec       q    Type
REMARK                         _______ _______ _______ _____ _____    ______ ____
ROOT
ATOM      1  C   UNL     1     -42.288 -17.508 -28.143  0.00  0.00    +0.000 A 
ATOM      2  C   UNL     1     -42.479 -16.155 -28.445  0.00  0.00    +0.000 A 
ATOM      3  C   UNL     1     -43.462 -15.420 -27.781  0.00  0.00    +0.000 A 
ATOM      4  C   UNL     1     -44.259 -16.030 -26.807  0.00  0.00    +0.000 A 
ATOM      5  N   UNL     1     -45.219 -15.309 -26.174  0.00  0.00    +0.000 N 
ATOM      6  C   UNL     1     -46.016 -15.863 -25.225  0.00  0.00    +0.000 A 
ATOM      7  O   UNL     1     -46.896 -15.165 -24.658  0.00  0.00    +0.000 OA
ATOM      8  C   UNL     1     -45.862 -17.204 -24.875  0.00  0.00    +0.000 A 
ATOM      9  C   UNL     1     -44.889 -17.991 -25.503  0.00  0.00    +0.000 A 
ATOM     10  C   UNL     1     -44.068 -17.396 -26.488  0.00  0.00    +0.000 A 
ATOM     11  C   UNL     1     -43.082 -18.123 -27.172  0.00  0.00    +0.000 A 
ATOM     12  H   UNL     1     -45.339 -14.360 -26.408  0.00  0.00    +0.000 HD
ENDROOT
BRANCH   9  13
ATOM     13  C   UNL     1     -44.725 -19.405 -25.076  0.00  0.00    +0.000 C 
ATOM     14  O   UNL     1     -45.543 -20.269 -25.499  0.00  0.00    +0.000 OA
ATOM     15  N   UNL     1     -43.649 -19.817 -24.214  0.00  0.00    +0.000 N 
ATOM     16  C   UNL     1     -43.405 -21.236 -23.997  0.00  0.00    +0.000 C 
BRANCH  15  17
ATOM     17  C   UNL     1     -42.954 -18.857 -23.362  0.00  0.00    +0.000 C 
BRANCH  17  18
ATOM     18  C   UNL     1     -43.080 -19.239 -21.921  0.00  0.00    +0.000 A 
ATOM     19  N   UNL     1     -42.119 -19.882 -21.230  0.00  0.00    +0.000 NA
ATOM     20  N   UNL     1     -42.594 -20.086 -20.009  0.00  0.00    +0.000 NA
ATOM     21  C   UNL     1     -43.844 -19.586 -19.981  0.00  0.00    +0.000 A 
ATOM     22  C   UNL     1     -44.663 -19.512 -18.726  0.00  0.00    +0.000 C 
ATOM     23  C   UNL     1     -46.156 -19.549 -19.023  0.00  0.00    +0.000 C 
ATOM     24  C   UNL     1     -46.707 -18.172 -19.407  0.00  0.00    +0.000 C 
ATOM     25  C   UNL     1     -45.906 -17.444 -20.492  0.00  0.00    +0.000 C 
ATOM     26  C   UNL     1     -45.424 -18.398 -21.576  0.00  0.00    +0.000 C 
ATOM     27  N   UNL     1     -44.175 -19.036 -21.169  0.00  0.00    +0.000 N 
ENDBRANCH  17  18
ENDBRANCH  15  17
ENDBRANCH   9  13
BRANCH   1  28
ATOM     28  S   UNL     1     -41.056 -18.440 -28.975  0.00  0.00    +0.000 S 
ATOM     29  O   UNL     1     -39.710 -17.798 -28.771  0.00  0.00    +0.000 OA
ATOM     30  O   UNL     1     -41.372 -18.456 -30.445  0.00  0.00    +0.000 OA
BRANCH  28  31
ATOM     31  N   UNL     1     -41.035 -20.065 -28.357  0.00  0.00    +0.000 NA
BRANCH  31  33
ATOM     32  C   UNL     1     -41.973 -21.882 -29.670  0.00  0.00    +0.000 C 
ATOM     33  C   UNL     1     -40.783 -20.962 -29.474  0.00  0.00    +0.000 C 
ENDBRANCH  31  33
BRANCH  31  34
ATOM     34  C   UNL     1     -39.896 -20.186 -27.461  0.00  0.00    +0.000 C 
ATOM     35  C   UNL     1     -40.381 -20.418 -26.045  0.00  0.00    +0.000 C 
ENDBRANCH  31  34
ENDBRANCH  28  31
ENDBRANCH   1  28
TORSDOF 7
ENDMDL
MODEL 3
REMARK VINA RESULT:      -7.0      3.129      7.770
REMARK  Name = ZINC000009910163 ZINC09910163 CSC027488492 MCULE-9624540958 MolPort-005-796-296 PubChem-16372402
REMARK  7 active torsions:
REMARK  status: ('A' for Active; 'I' for Inactive)
REMARK    1  A    between atoms: C_1  and  S_28
REMARK    2  A    between atoms: C_9  and  C_13
REMARK    3  A    between atoms: N_15  and  C_17
REMARK    4  A    between atoms: C_17  and  C_18
REMARK    5  A    between atoms: S_28  and  N_31
REMARK    6  A    between atoms: N_31  and  C_33
REMARK    7  A    between atoms: N_31  and  C_34
REMARK                            x       y       z     vdW  Elec       q    Type
REMARK                         _______ _______ _______ _____ _____    ______ ____
ROOT
ATOM      1  C   UNL     1     -45.630 -14.380 -24.725  0.00  0.00    +0.000 A 
ATOM      2  C   UNL     1     -45.716 -13.650 -23.535  0.00  0.00    +0.000 A 
ATOM      3  C   UNL     1     -45.748 -14.313 -22.307  0.00  0.00    +0.000 A 
ATOM      4  C   UNL     1     -45.691 -15.709 -22.259  0.00  0.00    +0.000 A 
ATOM      5  N   UNL     1     -45.733 -16.344 -21.060  0.00  0.00    +0.000 N 
ATOM      6  C   UNL     1     -45.683 -17.698 -20.969  0.00  0.00    +0.000 A 
ATOM      7  O   UNL     1     -45.724 -18.254 -19.841  0.00  0.00    +0.000 OA
ATOM      8  C   UNL     1     -45.584 -18.475 -22.123  0.00  0.00    +0.000 A 
ATOM      9  C   UNL     1     -45.543 -17.867 -23.384  0.00  0.00    +0.000 A 
ATOM     10  C   UNL     1     -45.595 -16.457 -23.458  0.00  0.00    +0.000 A 
ATOM     11  C   UNL     1     -45.574 -15.775 -24.684  0.00  0.00    +0.000 A 
ATOM     12  H   UNL     1     -45.801 -15.810 -20.236  0.00  0.00    +0.000 HD
ENDROOT
BRANCH   9  13
ATOM     13  C   UNL     1     -45.396 -18.724 -24.589  0.00  0.00    +0.000 C 
ATOM     14  O   UNL     1     -46.426 -19.256 -25.088  0.00  0.00    +0.000 OA
ATOM     15  N   UNL     1     -44.118 -18.944 -25.212  0.00  0.00    +0.000 N 
ATOM     16  C   UNL     1     -44.053 -19.612 -26.504  0.00  0.00    +0.000 C 
BRANCH  15  17
ATOM     17  C   UNL     1     -42.874 -18.739 -24.475  0.00  0.00    +0.000 C 
BRANCH  17  18
ATOM     18  C   UNL     1     -42.257 -20.050 -24.104  0.00  0.00    +0.000 A 
ATOM     19  N   UNL     1     -42.855 -20.964 -23.316  0.00  0.00    +0.000 NA
ATOM     20  N   UNL     1     -42.003 -21.970 -23.176  0.00  0.00    +0.000 NA
ATOM     21  C   UNL     1     -40.891 -21.645 -23.862  0.00  0.00    +0.000 A 
ATOM     22  C   UNL     1     -39.744 -22.595 -24.050  0.00  0.00    +0.000 C 
ATOM     23  C   UNL     1     -38.426 -21.858 -24.246  0.00  0.00    +0.000 C 
ATOM     24  C   UNL     1     -38.224 -21.403 -25.694  0.00  0.00    +0.000 C 
ATOM     25  C   UNL     1     -39.416 -20.653 -26.300  0.00  0.00    +0.000 C 
ATOM     26  C   UNL     1     -40.066 -19.715 -25.293  0.00  0.00    +0.000 C 
ATOM     27  N   UNL     1     -41.024 -20.446 -24.466  0.00  0.00    +0.000 N 
ENDBRANCH  17  18
ENDBRANCH  15  17
ENDBRANCH   9  13
BRANCH   1  28
ATOM     28  S   UNL     1     -45.592 -13.555 -26.274  0.00  0.00    +0.000 S 
ATOM     29  O   UNL     1     -44.836 -12.260 -26.139  0.00  0.00    +0.000 OA
ATOM     30  O   UNL     1     -47.003 -13.256 -26.697  0.00  0.00    +0.000 OA
BRANCH  28  31
ATOM     31  N   UNL     1     -44.821 -14.569 -27.458  0.00  0.00    +0.000 NA
BRANCH  31  33
ATOM     32  C   UNL     1     -44.096 -13.412 -29.467  0.00  0.00    +0.000 C 
ATOM     33  C   UNL     1     -45.245 -14.117 -28.774  0.00  0.00    +0.000 C 
ENDBRANCH  31  33
BRANCH  31  34
ATOM     34  C   UNL     1     -43.388 -14.334 -27.380  0.00  0.00    +0.000 C 
ATOM     35  C   UNL     1     -42.689 -15.591 -26.903  0.00  0.00    +0.000 C 
ENDBRANCH  31  34
ENDBRANCH  28  31
ENDBRANCH   1  28
TORSDOF 7
ENDMDL
