MODEL 1
REMARK VINA RESULT:      -6.3      0.000      0.000
REMARK  Name = ZINC000020530889
REMARK  7 active torsions:
REMARK  status: ('A' for Active; 'I' for Inactive)
REMARK    1  A    between atoms: C_2  and  O_23
REMARK    2  A    between atoms: C_6  and  C_7
REMARK    3  A    between atoms: C_11  and  C_12
REMARK    4  A    between atoms: C_14  and  O_26
REMARK    5  A    between atoms: C_16  and  O_27
REMARK    6  A    between atoms: C_18  and  O_28
REMARK    7  A    between atoms: C_21  and  O_29
REMARK                            x       y       z     vdW  Elec       q    Type
REMARK                         _______ _______ _______ _____ _____    ______ ____
ROOT
ATOM      1  C   UNL     1     -43.601 -18.462 -23.372  0.00  0.00    +0.000 C 
ATOM      2  C   UNL     1     -43.753 -19.681 -24.294  0.00  0.00    +0.000 C 
ATOM      3  C   UNL     1     -45.051 -19.636 -25.032  0.00  0.00    +0.000 C 
ATOM      4  C   UNL     1     -45.050 -17.168 -24.857  0.00  0.00    +0.000 C 
ATOM      5  C   UNL     1     -45.050 -14.615 -24.969  0.00  0.00    +0.000 C 
ATOM      6  O   UNL     1     -45.610 -20.703 -25.396  0.00  0.00    +0.000 OA
ATOM      7  O   UNL     1     -44.141 -14.501 -24.101  0.00  0.00    +0.000 OA
ATOM      8  N   UNL     1     -45.640 -18.375 -25.346  0.00  0.00    +0.000 NA
ATOM      9  N   UNL     1     -45.522 -15.913 -25.361  0.00  0.00    +0.000 NA
ATOM     10  N   UNL     1     -44.090 -17.218 -23.978  0.00  0.00    +0.000 NA
ENDROOT
BRANCH   1  15
ATOM     11  C   UNL     1     -44.081 -19.447 -19.711  0.00  0.00    +0.000 A 
ATOM     12  C   UNL     1     -45.441 -19.139 -19.544  0.00  0.00    +0.000 A 
ATOM     13  C   UNL     1     -46.191 -18.621 -20.596  0.00  0.00    +0.000 A 
ATOM     14  C   UNL     1     -45.591 -18.401 -21.832  0.00  0.00    +0.000 A 
ATOM     15  C   UNL     1     -44.236 -18.697 -22.028  0.00  0.00    +0.000 A 
ATOM     16  C   UNL     1     -43.466 -19.225 -20.972  0.00  0.00    +0.000 A 
BRANCH  11  18
ATOM     17  C   UNL     1     -42.625 -19.152 -17.725  0.00  0.00    +0.000 C 
ATOM     18  O   UNL     1     -43.345 -19.967 -18.641  0.00  0.00    +0.000 OA
ENDBRANCH  11  18
BRANCH  16  20
ATOM     19  C   UNL     1     -41.569 -20.803 -21.428  0.00  0.00    +0.000 C 
ATOM     20  O   UNL     1     -42.113 -19.506 -21.227  0.00  0.00    +0.000 OA
ENDBRANCH  16  20
ENDBRANCH   1  15
BRANCH   5  21
ATOM     21  C   UNL     1     -45.632 -13.409 -25.583  0.00  0.00    +0.000 A 
ATOM     22  C   UNL     1     -45.622 -12.191 -24.900  0.00  0.00    +0.000 A 
ATOM     23  C   UNL     1     -46.174 -11.038 -25.477  0.00  0.00    +0.000 A 
ATOM     24  C   UNL     1     -46.746 -11.098 -26.758  0.00  0.00    +0.000 A 
ATOM     25  C   UNL     1     -46.760 -12.331 -27.458  0.00  0.00    +0.000 A 
ATOM     26  C   UNL     1     -46.200 -13.469 -26.858  0.00  0.00    +0.000 A 
BRANCH  23  28
ATOM     27  C   UNL     1     -45.005  -9.005 -24.680  0.00  0.00    +0.000 C 
ATOM     28  O   UNL     1     -46.165  -9.817 -24.791  0.00  0.00    +0.000 OA
ENDBRANCH  23  28
BRANCH  24  30
ATOM     29  C   UNL     1     -46.623  -9.051 -28.202  0.00  0.00    +0.000 C 
ATOM     30  O   UNL     1     -47.282  -9.907 -27.281  0.00  0.00    +0.000 OA
ENDBRANCH  24  30
BRANCH  25  32
ATOM     31  C   UNL     1     -46.554 -12.663 -29.907  0.00  0.00    +0.000 C 
ATOM     32  O   UNL     1     -47.323 -12.421 -28.737  0.00  0.00    +0.000 OA
ENDBRANCH  25  32
ENDBRANCH   5  21
TORSDOF 7
ENDMDL
MODEL 2
REMARK VINA RESULT:      -6.3      0.130      2.220
REMARK  Name = ZINC000020530889
REMARK  7 active torsions:
REMARK  status: ('A' for Active; 'I' for Inactive)
REMARK    1  A    between atoms: C_2  and  O_23
REMARK    2  A    between atoms: C_6  and  C_7
REMARK    3  A    between atoms: C_11  and  C_12
REMARK    4  A    between atoms: C_14  and  O_26
REMARK    5  A    between atoms: C_16  and  O_27
REMARK    6  A    between atoms: C_18  and  O_28
REMARK    7  A    between atoms: C_21  and  O_29
REMARK                            x       y       z     vdW  Elec       q    Type
REMARK                         _______ _______ _______ _____ _____    ______ ____
ROOT
ATOM      1  C   UNL     1     -43.597 -18.469 -23.369  0.00  0.00    +0.000 C 
ATOM      2  C   UNL     1     -43.700 -19.696 -24.285  0.00  0.00    +0.000 C 
ATOM      3  C   UNL     1     -44.978 -19.682 -25.060  0.00  0.00    +0.000 C 
ATOM      4  C   UNL     1     -45.027 -17.213 -24.904  0.00  0.00    +0.000 C 
ATOM      5  C   UNL     1     -45.072 -14.662 -25.035  0.00  0.00    +0.000 C 
ATOM      6  O   UNL     1     -45.507 -20.762 -25.431  0.00  0.00    +0.000 OA
ATOM      7  O   UNL     1     -44.190 -14.524 -24.143  0.00  0.00    +0.000 OA
ATOM      8  N   UNL     1     -45.581 -18.435 -25.399  0.00  0.00    +0.000 NA
ATOM      9  N   UNL     1     -45.509 -15.971 -25.430  0.00  0.00    +0.000 NA
ATOM     10  N   UNL     1     -44.092 -17.238 -23.998  0.00  0.00    +0.000 NA
ENDROOT
BRANCH   1  15
ATOM     11  C   UNL     1     -44.162 -19.447 -19.719  0.00  0.00    +0.000 A 
ATOM     12  C   UNL     1     -45.529 -19.153 -19.589  0.00  0.00    +0.000 A 
ATOM     13  C   UNL     1     -46.256 -18.646 -20.662  0.00  0.00    +0.000 A 
ATOM     14  C   UNL     1     -45.627 -18.424 -21.882  0.00  0.00    +0.000 A 
ATOM     15  C   UNL     1     -44.264 -18.706 -22.042  0.00  0.00    +0.000 A 
ATOM     16  C   UNL     1     -43.517 -19.222 -20.964  0.00  0.00    +0.000 A 
BRANCH  11  18
ATOM     17  C   UNL     1     -42.695 -19.136 -17.742  0.00  0.00    +0.000 C 
ATOM     18  O   UNL     1     -43.449 -19.955 -18.627  0.00  0.00    +0.000 OA
ENDBRANCH  11  18
BRANCH  16  20
ATOM     19  C   UNL     1     -41.591 -20.781 -21.362  0.00  0.00    +0.000 C 
ATOM     20  O   UNL     1     -42.154 -19.489 -21.182  0.00  0.00    +0.000 OA
ENDBRANCH  16  20
ENDBRANCH   1  15
BRANCH   5  21
ATOM     21  C   UNL     1     -45.659 -13.471 -25.674  0.00  0.00    +0.000 A 
ATOM     22  C   UNL     1     -46.182 -13.545 -26.967  0.00  0.00    +0.000 A 
ATOM     23  C   UNL     1     -46.743 -12.416 -27.582  0.00  0.00    +0.000 A 
ATOM     24  C   UNL     1     -46.785 -11.190 -26.898  0.00  0.00    +0.000 A 
ATOM     25  C   UNL     1     -46.257 -11.107 -25.585  0.00  0.00    +0.000 A 
ATOM     26  C   UNL     1     -45.701 -12.252 -24.992  0.00  0.00    +0.000 A 
BRANCH  23  28
ATOM     27  C   UNL     1     -46.476 -12.836 -30.009  0.00  0.00    +0.000 C 
ATOM     28  O   UNL     1     -47.265 -12.491 -28.879  0.00  0.00    +0.000 OA
ENDBRANCH  23  28
BRANCH  24  30
ATOM     29  C   UNL     1     -46.639  -9.121 -28.307  0.00  0.00    +0.000 C 
ATOM     30  O   UNL     1     -47.360 -10.097 -27.569  0.00  0.00    +0.000 OA
ENDBRANCH  24  30
BRANCH  25  32
ATOM     31  C   UNL     1     -45.175  -9.014 -24.811  0.00  0.00    +0.000 C 
ATOM     32  O   UNL     1     -46.285  -9.899 -24.878  0.00  0.00    +0.000 OA
ENDBRANCH  25  32
ENDBRANCH   5  21
TORSDOF 7
ENDMDL
MODEL 3
REMARK VINA RESULT:      -6.1      2.131      2.589
REMARK  Name = ZINC000020530889
REMARK  7 active torsions:
REMARK  status: ('A' for Active; 'I' for Inactive)
REMARK    1  A    between atoms: C_2  and  O_23
REMARK    2  A    between atoms: C_6  and  C_7
REMARK    3  A    between atoms: C_11  and  C_12
REMARK    4  A    between atoms: C_14  and  O_26
REMARK    5  A    between atoms: C_16  and  O_27
REMARK    6  A    between atoms: C_18  and  O_28
REMARK    7  A    between atoms: C_21  and  O_29
REMARK                            x       y       z     vdW  Elec       q    Type
REMARK                         _______ _______ _______ _____ _____    ______ ____
ROOT
ATOM      1  C   UNL     1     -44.430 -17.301 -22.824  0.00  0.00    +0.000 C 
ATOM      2  C   UNL     1     -44.518 -18.539 -23.728  0.00  0.00    +0.000 C 
ATOM      3  C   UNL     1     -45.696 -18.452 -24.643  0.00  0.00    +0.000 C 
ATOM      4  C   UNL     1     -45.583 -15.983 -24.530  0.00  0.00    +0.000 C 
ATOM      5  C   UNL     1     -45.427 -13.439 -24.704  0.00  0.00    +0.000 C 
ATOM      6  O   UNL     1     -46.257 -19.500 -25.056  0.00  0.00    +0.000 OA
ATOM      7  O   UNL     1     -44.643 -13.343 -23.719  0.00  0.00    +0.000 OA
ATOM      8  N   UNL     1     -46.165 -17.174 -25.067  0.00  0.00    +0.000 NA
ATOM      9  N   UNL     1     -45.910 -14.722 -25.126  0.00  0.00    +0.000 NA
ATOM     10  N   UNL     1     -44.760 -16.053 -23.524  0.00  0.00    +0.000 NA
ENDROOT
BRANCH   1  15
ATOM     11  C   UNL     1     -46.176 -16.544 -19.511  0.00  0.00    +0.000 A 
ATOM     12  C   UNL     1     -46.787 -17.784 -19.260  0.00  0.00    +0.000 A 
ATOM     13  C   UNL     1     -46.638 -18.846 -20.147  0.00  0.00    +0.000 A 
ATOM     14  C   UNL     1     -45.877 -18.685 -21.300  0.00  0.00    +0.000 A 
ATOM     15  C   UNL     1     -45.257 -17.460 -21.578  0.00  0.00    +0.000 A 
ATOM     16  C   UNL     1     -45.397 -16.377 -20.687  0.00  0.00    +0.000 A 
BRANCH  11  18
ATOM     17  C   UNL     1     -47.599 -14.899 -18.319  0.00  0.00    +0.000 C 
ATOM     18  O   UNL     1     -46.338 -15.489 -18.606  0.00  0.00    +0.000 OA
ENDBRANCH  11  18
BRANCH  16  20
ATOM     19  C   UNL     1     -43.573 -14.679 -20.391  0.00  0.00    +0.000 C 
ATOM     20  O   UNL     1     -44.750 -15.173 -21.015  0.00  0.00    +0.000 OA
ENDBRANCH  16  20
ENDBRANCH   1  15
BRANCH   5  21
ATOM     21  C   UNL     1     -45.850 -12.225 -25.423  0.00  0.00    +0.000 A 
ATOM     22  C   UNL     1     -45.879 -10.989 -24.773  0.00  0.00    +0.000 A 
ATOM     23  C   UNL     1     -46.281  -9.828 -25.449  0.00  0.00    +0.000 A 
ATOM     24  C   UNL     1     -46.660  -9.898 -26.800  0.00  0.00    +0.000 A 
ATOM     25  C   UNL     1     -46.634 -11.149 -27.468  0.00  0.00    +0.000 A 
ATOM     26  C   UNL     1     -46.227 -12.294 -26.766  0.00  0.00    +0.000 A 
BRANCH  23  28
ATOM     27  C   UNL     1     -47.432  -8.140 -24.050  0.00  0.00    +0.000 C 
ATOM     28  O   UNL     1     -46.310  -8.590 -24.797  0.00  0.00    +0.000 OA
ENDBRANCH  23  28
BRANCH  24  30
ATOM     29  C   UNL     1     -46.164  -7.735 -27.968  0.00  0.00    +0.000 C 
ATOM     30  O   UNL     1     -47.052  -8.699 -27.422  0.00  0.00    +0.000 OA
ENDBRANCH  24  30
BRANCH  25  32
ATOM     31  C   UNL     1     -47.004 -12.477 -29.529  0.00  0.00    +0.000 C 
ATOM     32  O   UNL     1     -47.007 -11.249 -28.813  0.00  0.00    +0.000 OA
ENDBRANCH  25  32
ENDBRANCH   5  21
TORSDOF 7
ENDMDL
