MODEL 1
REMARK VINA RESULT:      -6.8      0.000      0.000
REMARK  Name = ZINC000096181546
REMARK  2 active torsions:
REMARK  status: ('A' for Active; 'I' for Inactive)
REMARK    1  A    between atoms: C_5  and  C_6
REMARK    2  A    between atoms: C_10  and  C_11
REMARK                            x       y       z     vdW  Elec       q    Type
REMARK                         _______ _______ _______ _____ _____    ______ ____
ROOT
ATOM      1  C   UNL     1     -45.935 -18.134 -20.220  0.00  0.00    +0.000 C 
ATOM      2  C   UNL     1     -45.646 -19.819 -18.657  0.00  0.00    +0.000 C 
ATOM      3  C   UNL     1     -44.205 -19.970 -19.021  0.00  0.00    +0.000 C 
ATOM      4  C   UNL     1     -42.185 -18.992 -20.135  0.00  0.00    +0.000 C 
ATOM      5  C   UNL     1     -44.491 -18.183 -20.760  0.00  0.00    +0.000 C 
ATOM      6  N   UNL     1     -43.628 -19.042 -19.944  0.00  0.00    +0.000 N 
ATOM      7  O   UNL     1     -46.402 -19.396 -19.771  0.00  0.00    +0.000 OA
ATOM      8  O   UNL     1     -43.515 -20.888 -18.504  0.00  0.00    +0.000 OA
ENDROOT
BRANCH   1  13
ATOM      9  C   UNL     1     -44.098 -12.341 -15.878  0.00  0.00    +0.000 C 
ATOM     10  C   UNL     1     -44.765 -13.444 -16.618  0.00  0.00    +0.000 A 
ATOM     11  C   UNL     1     -44.147 -14.292 -17.517  0.00  0.00    +0.000 A 
ATOM     12  C   UNL     1     -45.204 -15.100 -17.893  0.00  0.00    +0.000 A 
ATOM     13  C   UNL     1     -46.176 -17.023 -19.239  0.00  0.00    +0.000 C 
ATOM     14  N   UNL     1     -45.096 -16.173 -18.833  0.00  0.00    +0.000 NA
ATOM     15  N   UNL     1     -46.342 -14.750 -17.265  0.00  0.00    +0.000 NA
ATOM     16  O   UNL     1     -47.331 -16.872 -18.759  0.00  0.00    +0.000 OA
ATOM     17  O   UNL     1     -46.036 -13.745 -16.502  0.00  0.00    +0.000 OA
ENDBRANCH   1  13
BRANCH   5  18
ATOM     18  C   UNL     1     -44.477 -18.619 -22.195  0.00  0.00    +0.000 A 
ATOM     19  C   UNL     1     -43.673 -19.688 -22.620  0.00  0.00    +0.000 A 
ATOM     20  C   UNL     1     -43.671 -20.072 -23.964  0.00  0.00    +0.000 A 
ATOM     21  C   UNL     1     -44.469 -19.391 -24.887  0.00  0.00    +0.000 A 
ATOM     22  C   UNL     1     -44.467 -19.799 -26.316  0.00  0.00    +0.000 C 
ATOM     23  C   UNL     1     -45.270 -18.325 -24.467  0.00  0.00    +0.000 A 
ATOM     24  C   UNL     1     -45.272 -17.940 -23.122  0.00  0.00    +0.000 A 
ENDBRANCH   5  18
TORSDOF 2
ENDMDL
MODEL 2
REMARK VINA RESULT:      -6.3     16.029     17.803
REMARK  Name = ZINC000096181546
REMARK  2 active torsions:
REMARK  status: ('A' for Active; 'I' for Inactive)
REMARK    1  A    between atoms: C_5  and  C_6
REMARK    2  A    between atoms: C_10  and  C_11
REMARK                            x       y       z     vdW  Elec       q    Type
REMARK                         _______ _______ _______ _____ _____    ______ ____
ROOT
ATOM      1  C   UNL     1     -45.624  -3.900 -30.697  0.00  0.00    +0.000 C 
ATOM      2  C   UNL     1     -47.466  -4.058 -32.093  0.00  0.00    +0.000 C 
ATOM      3  C   UNL     1     -46.616  -4.503 -33.238  0.00  0.00    +0.000 C 
ATOM      4  C   UNL     1     -44.424  -5.435 -34.015  0.00  0.00    +0.000 C 
ATOM      5  C   UNL     1     -44.589  -4.296 -31.770  0.00  0.00    +0.000 C 
ATOM      6  N   UNL     1     -45.229  -4.765 -33.004  0.00  0.00    +0.000 N 
ATOM      7  O   UNL     1     -46.741  -3.207 -31.232  0.00  0.00    +0.000 OA
ATOM      8  O   UNL     1     -47.125  -4.660 -34.379  0.00  0.00    +0.000 OA
ENDROOT
BRANCH   1  13
ATOM      9  C   UNL     1     -46.082 -11.002 -28.430  0.00  0.00    +0.000 C 
ATOM     10  C   UNL     1     -46.156  -9.528 -28.602  0.00  0.00    +0.000 A 
ATOM     11  C   UNL     1     -45.620  -8.819 -29.660  0.00  0.00    +0.000 A 
ATOM     12  C   UNL     1     -45.973  -7.525 -29.321  0.00  0.00    +0.000 A 
ATOM     13  C   UNL     1     -46.002  -5.027 -29.779  0.00  0.00    +0.000 C 
ATOM     14  N   UNL     1     -45.648  -6.376 -30.109  0.00  0.00    +0.000 NA
ATOM     15  N   UNL     1     -46.657  -7.487 -28.163  0.00  0.00    +0.000 NA
ATOM     16  O   UNL     1     -46.659  -4.769 -28.735  0.00  0.00    +0.000 OA
ATOM     17  O   UNL     1     -46.748  -8.717 -27.759  0.00  0.00    +0.000 OA
ENDBRANCH   1  13
BRANCH   5  18
ATOM     18  C   UNL     1     -43.658  -3.156 -32.053  0.00  0.00    +0.000 A 
ATOM     19  C   UNL     1     -44.126  -1.835 -32.124  0.00  0.00    +0.000 A 
ATOM     20  C   UNL     1     -43.239  -0.789 -32.396  0.00  0.00    +0.000 A 
ATOM     21  C   UNL     1     -41.883  -1.058 -32.600  0.00  0.00    +0.000 A 
ATOM     22  C   UNL     1     -40.940   0.053 -32.889  0.00  0.00    +0.000 C 
ATOM     23  C   UNL     1     -41.413  -2.373 -32.532  0.00  0.00    +0.000 A 
ATOM     24  C   UNL     1     -42.300  -3.420 -32.260  0.00  0.00    +0.000 A 
ENDBRANCH   5  18
TORSDOF 2
ENDMDL
MODEL 3
REMARK VINA RESULT:      -6.3      4.958      6.749
REMARK  Name = ZINC000096181546
REMARK  2 active torsions:
REMARK  status: ('A' for Active; 'I' for Inactive)
REMARK    1  A    between atoms: C_5  and  C_6
REMARK    2  A    between atoms: C_10  and  C_11
REMARK                            x       y       z     vdW  Elec       q    Type
REMARK                         _______ _______ _______ _____ _____    ______ ____
ROOT
ATOM      1  C   UNL     1     -44.371 -16.351 -23.789  0.00  0.00    +0.000 C 
ATOM      2  C   UNL     1     -42.658 -16.843 -25.269  0.00  0.00    +0.000 C 
ATOM      3  C   UNL     1     -43.064 -18.279 -25.330  0.00  0.00    +0.000 C 
ATOM      4  C   UNL     1     -44.833 -20.003 -24.907  0.00  0.00    +0.000 C 
ATOM      5  C   UNL     1     -44.901 -17.795 -23.689  0.00  0.00    +0.000 C 
ATOM      6  N   UNL     1     -44.268 -18.683 -24.669  0.00  0.00    +0.000 N 
ATOM      7  O   UNL     1     -42.971 -16.287 -24.010  0.00  0.00    +0.000 OA
ATOM      8  O   UNL     1     -42.365 -19.108 -25.971  0.00  0.00    +0.000 OA
ENDROOT
BRANCH   1  13
ATOM      9  C   UNL     1     -46.890  -9.926 -26.648  0.00  0.00    +0.000 C 
ATOM     10  C   UNL     1     -46.583 -11.340 -26.309  0.00  0.00    +0.000 A 
ATOM     11  C   UNL     1     -45.711 -11.754 -25.319  0.00  0.00    +0.000 A 
ATOM     12  C   UNL     1     -45.806 -13.128 -25.437  0.00  0.00    +0.000 A 
ATOM     13  C   UNL     1     -45.163 -15.480 -24.721  0.00  0.00    +0.000 C 
ATOM     14  N   UNL     1     -45.083 -14.053 -24.618  0.00  0.00    +0.000 NA
ATOM     15  N   UNL     1     -46.661 -13.484 -26.413  0.00  0.00    +0.000 NA
ATOM     16  O   UNL     1     -45.920 -16.023 -25.569  0.00  0.00    +0.000 OA
ATOM     17  O   UNL     1     -47.111 -12.375 -26.917  0.00  0.00    +0.000 OA
ENDBRANCH   1  13
BRANCH   5  18
ATOM     18  C   UNL     1     -44.729 -18.327 -22.297  0.00  0.00    +0.000 A 
ATOM     19  C   UNL     1     -43.483 -18.786 -21.844  0.00  0.00    +0.000 A 
ATOM     20  C   UNL     1     -43.349 -19.285 -20.545  0.00  0.00    +0.000 A 
ATOM     21  C   UNL     1     -44.457 -19.327 -19.695  0.00  0.00    +0.000 A 
ATOM     22  C   UNL     1     -44.315 -19.857 -18.314  0.00  0.00    +0.000 C 
ATOM     23  C   UNL     1     -45.701 -18.872 -20.143  0.00  0.00    +0.000 A 
ATOM     24  C   UNL     1     -45.836 -18.373 -21.443  0.00  0.00    +0.000 A 
ENDBRANCH   5  18
TORSDOF 2
ENDMDL
