MODEL 1
REMARK VINA RESULT:      -6.8      0.000      0.000
REMARK  Name = ZINC000067641329 MCULE-5536280821 MolPort-016-591-893
REMARK  3 active torsions:
REMARK  status: ('A' for Active; 'I' for Inactive)
REMARK    1  A    between atoms: C_1  and  C_6
REMARK    2  A    between atoms: N_2  and  C_19
REMARK    3  A    between atoms: C_4  and  C_26
REMARK                            x       y       z     vdW  Elec       q    Type
REMARK                         _______ _______ _______ _____ _____    ______ ____
ROOT
ATOM      1  C   UNL     1     -46.463  -5.487 -29.611  0.00  0.00    +0.000 A 
ATOM      2  N   UNL     1     -46.494  -4.175 -29.947  0.00  0.00    +0.000 N 
ATOM      3  N   UNL     1     -46.949  -3.504 -28.903  0.00  0.00    +0.000 NA
ATOM      4  C   UNL     1     -47.190  -4.425 -27.951  0.00  0.00    +0.000 A 
ATOM      5  N   UNL     1     -46.898  -5.680 -28.350  0.00  0.00    +0.000 NA
ENDROOT
BRANCH   1   6
ATOM      6  C   UNL     1     -45.908  -6.581 -30.438  0.00  0.00    +0.000 A 
ATOM      7  C   UNL     1     -46.724  -7.185 -31.401  0.00  0.00    +0.000 A 
ATOM      8  C   UNL     1     -46.214  -8.192 -32.221  0.00  0.00    +0.000 A 
ATOM      9  O   UNL     1     -46.954  -8.737 -33.079  0.00  0.00    +0.000 OA
ATOM     10  N   UNL     1     -44.918  -8.584 -32.096  0.00  0.00    +0.000 N 
ATOM     11  C   UNL     1     -44.088  -8.016 -31.182  0.00  0.00    +0.000 A 
ATOM     12  C   UNL     1     -42.762  -8.450 -31.088  0.00  0.00    +0.000 A 
ATOM     13  C   UNL     1     -41.902  -7.876 -30.149  0.00  0.00    +0.000 A 
ATOM     14  C   UNL     1     -42.364  -6.867 -29.299  0.00  0.00    +0.000 A 
ATOM     15  F   UNL     1     -41.528  -6.315 -28.388  0.00  0.00    +0.000 F 
ATOM     16  C   UNL     1     -43.688  -6.429 -29.387  0.00  0.00    +0.000 A 
ATOM     17  C   UNL     1     -44.562  -6.992 -30.329  0.00  0.00    +0.000 A 
ATOM     18  H   UNL     1     -44.574  -9.296 -32.682  0.00  0.00    +0.000 HD
ENDBRANCH   1   6
BRANCH   2  19
ATOM     19  C   UNL     1     -46.199  -3.552 -31.210  0.00  0.00    +0.000 A 
ATOM     20  C   UNL     1     -46.927  -3.873 -32.364  0.00  0.00    +0.000 A 
ATOM     21  C   UNL     1     -46.642  -3.220 -33.565  0.00  0.00    +0.000 A 
ATOM     22  N   UNL     1     -45.670  -2.270 -33.609  0.00  0.00    +0.000 NA
ATOM     23  C   UNL     1     -44.959  -1.927 -32.501  0.00  0.00    +0.000 A 
ATOM     24  C   UNL     1     -43.912  -0.876 -32.588  0.00  0.00    +0.000 C 
ATOM     25  C   UNL     1     -45.217  -2.557 -31.283  0.00  0.00    +0.000 A 
ENDBRANCH   2  19
BRANCH   4  26
ATOM     26  C   UNL     1     -47.722  -4.103 -26.593  0.00  0.00    +0.000 C 
ATOM     27  C   UNL     1     -47.407  -2.666 -26.229  0.00  0.00    +0.000 C 
ATOM     28  C   UNL     1     -47.129  -5.038 -25.557  0.00  0.00    +0.000 C 
ENDBRANCH   4  26
TORSDOF 3
ENDMDL
MODEL 2
REMARK VINA RESULT:      -6.8      2.277      5.074
REMARK  Name = ZINC000067641329 MCULE-5536280821 MolPort-016-591-893
REMARK  3 active torsions:
REMARK  status: ('A' for Active; 'I' for Inactive)
REMARK    1  A    between atoms: C_1  and  C_6
REMARK    2  A    between atoms: N_2  and  C_19
REMARK    3  A    between atoms: C_4  and  C_26
REMARK                            x       y       z     vdW  Elec       q    Type
REMARK                         _______ _______ _______ _____ _____    ______ ____
ROOT
ATOM      1  C   UNL     1     -46.544  -5.064 -28.812  0.00  0.00    +0.000 A 
ATOM      2  N   UNL     1     -45.852  -5.764 -27.881  0.00  0.00    +0.000 N 
ATOM      3  N   UNL     1     -46.199  -5.301 -26.692  0.00  0.00    +0.000 NA
ATOM      4  C   UNL     1     -47.097  -4.325 -26.924  0.00  0.00    +0.000 A 
ATOM      5  N   UNL     1     -47.344  -4.143 -28.238  0.00  0.00    +0.000 NA
ENDROOT
BRANCH   1   6
ATOM      6  C   UNL     1     -46.553  -5.331 -30.267  0.00  0.00    +0.000 A 
ATOM      7  C   UNL     1     -46.956  -6.591 -30.724  0.00  0.00    +0.000 A 
ATOM      8  C   UNL     1     -47.013  -6.856 -32.092  0.00  0.00    +0.000 A 
ATOM      9  O   UNL     1     -47.367  -7.993 -32.497  0.00  0.00    +0.000 OA
ATOM     10  N   UNL     1     -46.687  -5.888 -32.989  0.00  0.00    +0.000 N 
ATOM     11  C   UNL     1     -46.302  -4.648 -32.590  0.00  0.00    +0.000 A 
ATOM     12  C   UNL     1     -45.977  -3.682 -33.548  0.00  0.00    +0.000 A 
ATOM     13  C   UNL     1     -45.575  -2.405 -33.147  0.00  0.00    +0.000 A 
ATOM     14  C   UNL     1     -45.496  -2.089 -31.788  0.00  0.00    +0.000 A 
ATOM     15  F   UNL     1     -45.105  -0.851 -31.403  0.00  0.00    +0.000 F 
ATOM     16  C   UNL     1     -45.820  -3.049 -30.825  0.00  0.00    +0.000 A 
ATOM     17  C   UNL     1     -46.230  -4.334 -31.213  0.00  0.00    +0.000 A 
ATOM     18  H   UNL     1     -46.731  -6.092 -33.951  0.00  0.00    +0.000 HD
ENDBRANCH   1   6
BRANCH   2  19
ATOM     19  C   UNL     1     -44.838  -6.767 -28.064  0.00  0.00    +0.000 A 
ATOM     20  C   UNL     1     -43.538  -6.421 -28.458  0.00  0.00    +0.000 A 
ATOM     21  C   UNL     1     -42.567  -7.416 -28.588  0.00  0.00    +0.000 A 
ATOM     22  N   UNL     1     -42.881  -8.712 -28.323  0.00  0.00    +0.000 NA
ATOM     23  C   UNL     1     -44.130  -9.075 -27.924  0.00  0.00    +0.000 A 
ATOM     24  C   UNL     1     -44.431 -10.501 -27.635  0.00  0.00    +0.000 C 
ATOM     25  C   UNL     1     -45.126  -8.108 -27.782  0.00  0.00    +0.000 A 
ENDBRANCH   2  19
BRANCH   4  26
ATOM     26  C   UNL     1     -47.755  -3.523 -25.851  0.00  0.00    +0.000 C 
ATOM     27  C   UNL     1     -47.386  -2.058 -25.983  0.00  0.00    +0.000 C 
ATOM     28  C   UNL     1     -47.350  -4.035 -24.483  0.00  0.00    +0.000 C 
ENDBRANCH   4  26
TORSDOF 3
ENDMDL
MODEL 3
REMARK VINA RESULT:      -6.6      1.910      1.954
REMARK  Name = ZINC000067641329 MCULE-5536280821 MolPort-016-591-893
REMARK  3 active torsions:
REMARK  status: ('A' for Active; 'I' for Inactive)
REMARK    1  A    between atoms: C_1  and  C_6
REMARK    2  A    between atoms: N_2  and  C_19
REMARK    3  A    between atoms: C_4  and  C_26
REMARK                            x       y       z     vdW  Elec       q    Type
REMARK                         _______ _______ _______ _____ _____    ______ ____
ROOT
ATOM      1  C   UNL     1     -46.635  -5.616 -28.095  0.00  0.00    +0.000 A 
ATOM      2  N   UNL     1     -46.662  -4.504 -28.867  0.00  0.00    +0.000 N 
ATOM      3  N   UNL     1     -47.065  -3.499 -28.109  0.00  0.00    +0.000 NA
ATOM      4  C   UNL     1     -47.280  -4.023 -26.887  0.00  0.00    +0.000 A 
ATOM      5  N   UNL     1     -47.021  -5.345 -26.831  0.00  0.00    +0.000 NA
ENDROOT
BRANCH   1   6
ATOM      6  C   UNL     1     -46.129  -6.945 -28.505  0.00  0.00    +0.000 A 
ATOM      7  C   UNL     1     -46.999  -7.836 -29.142  0.00  0.00    +0.000 A 
ATOM      8  C   UNL     1     -46.537  -9.079 -29.574  0.00  0.00    +0.000 A 
ATOM      9  O   UNL     1     -47.326  -9.879 -30.140  0.00  0.00    +0.000 OA
ATOM     10  N   UNL     1     -45.237  -9.427 -29.388  0.00  0.00    +0.000 N 
ATOM     11  C   UNL     1     -44.355  -8.588 -28.785  0.00  0.00    +0.000 A 
ATOM     12  C   UNL     1     -43.025  -8.987 -28.614  0.00  0.00    +0.000 A 
ATOM     13  C   UNL     1     -42.113  -8.133 -27.990  0.00  0.00    +0.000 A 
ATOM     14  C   UNL     1     -42.524  -6.879 -27.533  0.00  0.00    +0.000 A 
ATOM     15  F   UNL     1     -41.637  -6.054 -26.927  0.00  0.00    +0.000 F 
ATOM     16  C   UNL     1     -43.852  -6.473 -27.700  0.00  0.00    +0.000 A 
ATOM     17  C   UNL     1     -44.779  -7.318 -28.330  0.00  0.00    +0.000 A 
ATOM     18  H   UNL     1     -44.927 -10.308 -29.698  0.00  0.00    +0.000 HD
ENDBRANCH   1   6
BRANCH   2  19
ATOM     19  C   UNL     1     -46.410  -4.368 -30.277  0.00  0.00    +0.000 A 
ATOM     20  C   UNL     1     -47.456  -4.420 -31.208  0.00  0.00    +0.000 A 
ATOM     21  C   UNL     1     -47.183  -4.246 -32.566  0.00  0.00    +0.000 A 
ATOM     22  N   UNL     1     -45.908  -4.015 -32.979  0.00  0.00    +0.000 NA
ATOM     23  C   UNL     1     -44.875  -3.944 -32.096  0.00  0.00    +0.000 A 
ATOM     24  C   UNL     1     -43.497  -3.681 -32.586  0.00  0.00    +0.000 C 
ATOM     25  C   UNL     1     -45.111  -4.112 -30.731  0.00  0.00    +0.000 A 
ENDBRANCH   2  19
BRANCH   4  26
ATOM     26  C   UNL     1     -47.752  -3.233 -25.711  0.00  0.00    +0.000 C 
ATOM     27  C   UNL     1     -47.374  -1.773 -25.868  0.00  0.00    +0.000 C 
ATOM     28  C   UNL     1     -47.156  -3.785 -24.430  0.00  0.00    +0.000 C 
ENDBRANCH   4  26
TORSDOF 3
ENDMDL
