MODEL 1
REMARK VINA RESULT:      -6.7      0.000      0.000
REMARK  Name = ZINC000018200763
REMARK  2 active torsions:
REMARK  status: ('A' for Active; 'I' for Inactive)
REMARK    1  A    between atoms: C_14  and  O_15
REMARK    2  A    between atoms: C_17  and  C_21
REMARK                            x       y       z     vdW  Elec       q    Type
REMARK                         _______ _______ _______ _____ _____    ______ ____
ROOT
ATOM      1  C   UNL     1     -42.861  -2.416 -32.533  0.00  0.00    +0.000 C 
ATOM      2  C   UNL     1     -44.231  -1.793 -32.760  0.00  0.00    +0.000 C 
ATOM      3  C   UNL     1     -44.038  -0.458 -33.445  0.00  0.00    +0.000 C 
ATOM      4  C   UNL     1     -44.928  -1.557 -31.419  0.00  0.00    +0.000 C 
ATOM      5  C   UNL     1     -45.526  -2.807 -30.838  0.00  0.00    +0.000 C 
ATOM      6  O   UNL     1     -45.904  -2.792 -29.637  0.00  0.00    +0.000 OA
ATOM      7  C   UNL     1     -45.695  -4.033 -31.655  0.00  0.00    +0.000 C 
ATOM      8  C   UNL     1     -45.467  -3.980 -33.000  0.00  0.00    +0.000 C 
ATOM      9  C   UNL     1     -45.079  -2.688 -33.665  0.00  0.00    +0.000 C 
ATOM     10  N   UNL     1     -45.701  -5.122 -33.844  0.00  0.00    +0.000 N 
ATOM     11  C   UNL     1     -46.202  -6.313 -33.255  0.00  0.00    +0.000 A 
ATOM     12  N   UNL     1     -46.541  -7.444 -33.900  0.00  0.00    +0.000 N 
ATOM     13  N   UNL     1     -46.982  -8.299 -32.981  0.00  0.00    +0.000 NA
ATOM     14  C   UNL     1     -46.916  -7.693 -31.775  0.00  0.00    +0.000 A 
ATOM     15  C   UNL     1     -46.425  -6.419 -31.924  0.00  0.00    +0.000 A 
ATOM     16  C   UNL     1     -46.093  -5.334 -30.946  0.00  0.00    +0.000 C 
ATOM     17  H   UNL     1     -45.518  -5.077 -34.810  0.00  0.00    +0.000 HD
ATOM     18  H   UNL     1     -46.475  -7.608 -34.869  0.00  0.00    +0.000 HD
ENDROOT
BRANCH  16  19
ATOM     19  C   UNL     1     -45.019  -5.794 -29.993  0.00  0.00    +0.000 A 
ATOM     20  C   UNL     1     -43.711  -5.995 -30.457  0.00  0.00    +0.000 A 
ATOM     21  C   UNL     1     -42.719  -6.428 -29.576  0.00  0.00    +0.000 A 
ATOM     22  N   UNL     1     -43.017  -6.660 -28.270  0.00  0.00    +0.000 NA
ATOM     23  C   UNL     1     -44.273  -6.480 -27.783  0.00  0.00    +0.000 A 
ATOM     24  C   UNL     1     -44.539  -6.732 -26.434  0.00  0.00    +0.000 A 
ATOM     25  C   UNL     1     -45.829  -6.552 -25.928  0.00  0.00    +0.000 A 
ATOM     26  C   UNL     1     -46.859  -6.121 -26.769  0.00  0.00    +0.000 A 
ATOM     27  C   UNL     1     -46.602  -5.866 -28.119  0.00  0.00    +0.000 A 
ATOM     28  C   UNL     1     -45.311  -6.042 -28.639  0.00  0.00    +0.000 A 
ENDBRANCH  16  19
BRANCH  14  29
ATOM     29  O   UNL     1     -47.286  -8.292 -30.580  0.00  0.00    +0.000 OA
ATOM     30  H   UNL     1     -48.090  -8.052 -30.163  0.00  0.00    +0.000 HD
ENDBRANCH  14  29
TORSDOF 2
ENDMDL
MODEL 2
REMARK VINA RESULT:      -6.6      2.532      6.323
REMARK  Name = ZINC000018200763
REMARK  2 active torsions:
REMARK  status: ('A' for Active; 'I' for Inactive)
REMARK    1  A    between atoms: C_14  and  O_15
REMARK    2  A    between atoms: C_17  and  C_21
REMARK                            x       y       z     vdW  Elec       q    Type
REMARK                         _______ _______ _______ _____ _____    ______ ____
ROOT
ATOM      1  C   UNL     1     -44.505 -10.260 -30.083  0.00  0.00    +0.000 C 
ATOM      2  C   UNL     1     -46.003 -10.484 -30.218  0.00  0.00    +0.000 C 
ATOM      3  C   UNL     1     -46.248 -11.965 -30.404  0.00  0.00    +0.000 C 
ATOM      4  C   UNL     1     -46.535  -9.744 -31.446  0.00  0.00    +0.000 C 
ATOM      5  C   UNL     1     -46.714  -8.270 -31.213  0.00  0.00    +0.000 C 
ATOM      6  O   UNL     1     -46.907  -7.522 -32.209  0.00  0.00    +0.000 OA
ATOM      7  C   UNL     1     -46.692  -7.696 -29.846  0.00  0.00    +0.000 C 
ATOM      8  C   UNL     1     -46.682  -8.533 -28.768  0.00  0.00    +0.000 C 
ATOM      9  C   UNL     1     -46.726 -10.025 -28.950  0.00  0.00    +0.000 C 
ATOM     10  N   UNL     1     -46.746  -8.023 -27.424  0.00  0.00    +0.000 N 
ATOM     11  C   UNL     1     -46.846  -6.618 -27.233  0.00  0.00    +0.000 A 
ATOM     12  N   UNL     1     -46.985  -5.978 -26.057  0.00  0.00    +0.000 N 
ATOM     13  N   UNL     1     -47.063  -4.678 -26.330  0.00  0.00    +0.000 NA
ATOM     14  C   UNL     1     -46.974  -4.521 -27.669  0.00  0.00    +0.000 A 
ATOM     15  C   UNL     1     -46.840  -5.749 -28.270  0.00  0.00    +0.000 A 
ATOM     16  C   UNL     1     -46.649  -6.170 -29.694  0.00  0.00    +0.000 C 
ATOM     17  H   UNL     1     -46.722  -8.634 -26.653  0.00  0.00    +0.000 HD
ATOM     18  H   UNL     1     -47.022  -6.393 -25.165  0.00  0.00    +0.000 HD
ENDROOT
BRANCH  16  19
ATOM     19  C   UNL     1     -45.368  -5.598 -30.246  0.00  0.00    +0.000 A 
ATOM     20  C   UNL     1     -44.132  -6.060 -29.771  0.00  0.00    +0.000 A 
ATOM     21  C   UNL     1     -42.947  -5.523 -30.276  0.00  0.00    +0.000 A 
ATOM     22  N   UNL     1     -42.986  -4.551 -31.225  0.00  0.00    +0.000 NA
ATOM     23  C   UNL     1     -44.163  -4.074 -31.709  0.00  0.00    +0.000 A 
ATOM     24  C   UNL     1     -44.159  -3.071 -32.683  0.00  0.00    +0.000 A 
ATOM     25  C   UNL     1     -45.366  -2.575 -33.182  0.00  0.00    +0.000 A 
ATOM     26  C   UNL     1     -46.582  -3.077 -32.709  0.00  0.00    +0.000 A 
ATOM     27  C   UNL     1     -46.594  -4.080 -31.735  0.00  0.00    +0.000 A 
ATOM     28  C   UNL     1     -45.390  -4.588 -31.226  0.00  0.00    +0.000 A 
ENDBRANCH  16  19
BRANCH  14  29
ATOM     29  O   UNL     1     -47.007  -3.293 -28.314  0.00  0.00    +0.000 OA
ATOM     30  H   UNL     1     -47.561  -2.610 -27.993  0.00  0.00    +0.000 HD
ENDBRANCH  14  29
TORSDOF 2
ENDMDL
MODEL 3
REMARK VINA RESULT:      -6.6     11.203     14.210
REMARK  Name = ZINC000018200763
REMARK  2 active torsions:
REMARK  status: ('A' for Active; 'I' for Inactive)
REMARK    1  A    between atoms: C_14  and  O_15
REMARK    2  A    between atoms: C_17  and  C_21
REMARK                            x       y       z     vdW  Elec       q    Type
REMARK                         _______ _______ _______ _____ _____    ______ ____
ROOT
ATOM      1  C   UNL     1     -43.599 -14.225 -25.938  0.00  0.00    +0.000 C 
ATOM      2  C   UNL     1     -44.854 -14.943 -26.412  0.00  0.00    +0.000 C 
ATOM      3  C   UNL     1     -45.203 -14.429 -27.792  0.00  0.00    +0.000 C 
ATOM      4  C   UNL     1     -46.020 -14.637 -25.470  0.00  0.00    +0.000 C 
ATOM      5  C   UNL     1     -45.972 -15.433 -24.197  0.00  0.00    +0.000 C 
ATOM      6  O   UNL     1     -46.727 -15.096 -23.246  0.00  0.00    +0.000 OA
ATOM      7  C   UNL     1     -45.078 -16.609 -24.055  0.00  0.00    +0.000 C 
ATOM      8  C   UNL     1     -44.416 -17.083 -25.149  0.00  0.00    +0.000 C 
ATOM      9  C   UNL     1     -44.605 -16.449 -26.500  0.00  0.00    +0.000 C 
ATOM     10  N   UNL     1     -43.606 -18.270 -25.077  0.00  0.00    +0.000 N 
ATOM     11  C   UNL     1     -43.524 -18.965 -23.840  0.00  0.00    +0.000 A 
ATOM     12  N   UNL     1     -42.875 -20.121 -23.613  0.00  0.00    +0.000 N 
ATOM     13  N   UNL     1     -43.071 -20.432 -22.334  0.00  0.00    +0.000 NA
ATOM     14  C   UNL     1     -43.841 -19.470 -21.779  0.00  0.00    +0.000 A 
ATOM     15  C   UNL     1     -44.148 -18.522 -22.724  0.00  0.00    +0.000 A 
ATOM     16  C   UNL     1     -44.908 -17.233 -22.664  0.00  0.00    +0.000 C 
ATOM     17  H   UNL     1     -43.119 -18.595 -25.868  0.00  0.00    +0.000 HD
ATOM     18  H   UNL     1     -42.354 -20.639 -24.269  0.00  0.00    +0.000 HD
ENDROOT
BRANCH  16  19
ATOM     19  C   UNL     1     -44.244 -16.274 -21.707  0.00  0.00    +0.000 A 
ATOM     20  C   UNL     1     -43.007 -15.702 -22.035  0.00  0.00    +0.000 A 
ATOM     21  C   UNL     1     -42.389 -14.822 -21.146  0.00  0.00    +0.000 A 
ATOM     22  N   UNL     1     -42.981 -14.519 -19.961  0.00  0.00    +0.000 NA
ATOM     23  C   UNL     1     -44.178 -15.055 -19.604  0.00  0.00    +0.000 A 
ATOM     24  C   UNL     1     -44.752 -14.720 -18.374  0.00  0.00    +0.000 A 
ATOM     25  C   UNL     1     -45.981 -15.271 -18.002  0.00  0.00    +0.000 A 
ATOM     26  C   UNL     1     -46.641 -16.159 -18.856  0.00  0.00    +0.000 A 
ATOM     27  C   UNL     1     -46.074 -16.499 -20.087  0.00  0.00    +0.000 A 
ATOM     28  C   UNL     1     -44.841 -15.953 -20.474  0.00  0.00    +0.000 A 
ENDBRANCH  16  19
BRANCH  14  29
ATOM     29  O   UNL     1     -44.238 -19.459 -20.450  0.00  0.00    +0.000 OA
ATOM     30  H   UNL     1     -44.580 -18.675 -20.069  0.00  0.00    +0.000 HD
ENDBRANCH  14  29
TORSDOF 2
ENDMDL
