MODEL 1
REMARK VINA RESULT:      -7.0      0.000      0.000
REMARK  Name = ZINC000009910163 ZINC09910163 CSC027488492 MCULE-9624540958 MolPort-005-796-296 PubChem-16372402
REMARK  7 active torsions:
REMARK  status: ('A' for Active; 'I' for Inactive)
REMARK    1  A    between atoms: C_1  and  S_28
REMARK    2  A    between atoms: C_9  and  C_13
REMARK    3  A    between atoms: N_15  and  C_17
REMARK    4  A    between atoms: C_17  and  C_18
REMARK    5  A    between atoms: S_28  and  N_31
REMARK    6  A    between atoms: N_31  and  C_33
REMARK    7  A    between atoms: N_31  and  C_34
REMARK                            x       y       z     vdW  Elec       q    Type
REMARK                         _______ _______ _______ _____ _____    ______ ____
ROOT
ATOM      1  C   UNL     1     -44.294 -19.087 -23.853  0.00  0.00    +0.000 A 
ATOM      2  C   UNL     1     -43.031 -19.655 -24.044  0.00  0.00    +0.000 A 
ATOM      3  C   UNL     1     -42.253 -20.022 -22.944  0.00  0.00    +0.000 A 
ATOM      4  C   UNL     1     -42.735 -19.827 -21.646  0.00  0.00    +0.000 A 
ATOM      5  N   UNL     1     -41.967 -20.178 -20.583  0.00  0.00    +0.000 N 
ATOM      6  C   UNL     1     -42.395 -20.003 -19.306  0.00  0.00    +0.000 A 
ATOM      7  O   UNL     1     -41.657 -20.340 -18.344  0.00  0.00    +0.000 OA
ATOM      8  C   UNL     1     -43.652 -19.452 -19.057  0.00  0.00    +0.000 A 
ATOM      9  C   UNL     1     -44.479 -19.069 -20.121  0.00  0.00    +0.000 A 
ATOM     10  C   UNL     1     -44.016 -19.260 -21.442  0.00  0.00    +0.000 A 
ATOM     11  C   UNL     1     -44.780 -18.887 -22.558  0.00  0.00    +0.000 A 
ATOM     12  H   UNL     1     -41.078 -20.570 -20.741  0.00  0.00    +0.000 HD
ENDROOT
BRANCH   9  13
ATOM     13  C   UNL     1     -45.828 -18.523 -19.819  0.00  0.00    +0.000 C 
ATOM     14  O   UNL     1     -46.832 -19.278 -19.935  0.00  0.00    +0.000 OA
ATOM     15  N   UNL     1     -46.015 -17.165 -19.378  0.00  0.00    +0.000 N 
ATOM     16  C   UNL     1     -47.321 -16.741 -18.893  0.00  0.00    +0.000 C 
BRANCH  15  17
ATOM     17  C   UNL     1     -45.005 -16.142 -19.633  0.00  0.00    +0.000 C 
BRANCH  17  18
ATOM     18  C   UNL     1     -45.635 -14.903 -20.185  0.00  0.00    +0.000 A 
ATOM     19  N   UNL     1     -46.133 -14.807 -21.433  0.00  0.00    +0.000 NA
ATOM     20  N   UNL     1     -46.568 -13.564 -21.580  0.00  0.00    +0.000 NA
ATOM     21  C   UNL     1     -46.309 -12.914 -20.428  0.00  0.00    +0.000 A 
ATOM     22  C   UNL     1     -46.776 -11.513 -20.162  0.00  0.00    +0.000 C 
ATOM     23  C   UNL     1     -45.867 -10.794 -19.174  0.00  0.00    +0.000 C 
ATOM     24  C   UNL     1     -46.206 -11.133 -17.719  0.00  0.00    +0.000 C 
ATOM     25  C   UNL     1     -46.328 -12.633 -17.425  0.00  0.00    +0.000 C 
ATOM     26  C   UNL     1     -45.277 -13.444 -18.168  0.00  0.00    +0.000 C 
ATOM     27  N   UNL     1     -45.730 -13.735 -19.527  0.00  0.00    +0.000 N 
ENDBRANCH  17  18
ENDBRANCH  15  17
ENDBRANCH   9  13
BRANCH   1  28
ATOM     28  S   UNL     1     -45.277 -18.620 -25.230  0.00  0.00    +0.000 S 
ATOM     29  O   UNL     1     -46.721 -18.940 -24.954  0.00  0.00    +0.000 OA
ATOM     30  O   UNL     1     -44.824 -19.400 -26.433  0.00  0.00    +0.000 OA
BRANCH  28  31
ATOM     31  N   UNL     1     -45.096 -16.916 -25.528  0.00  0.00    +0.000 NA
BRANCH  31  33
ATOM     32  C   UNL     1     -46.222 -14.785 -25.224  0.00  0.00    +0.000 C 
ATOM     33  C   UNL     1     -46.104 -16.219 -24.745  0.00  0.00    +0.000 C 
ENDBRANCH  31  33
BRANCH  31  34
ATOM     34  C   UNL     1     -43.804 -16.507 -25.001  0.00  0.00    +0.000 C 
ATOM     35  C   UNL     1     -42.783 -16.472 -26.120  0.00  0.00    +0.000 C 
ENDBRANCH  31  34
ENDBRANCH  28  31
ENDBRANCH   1  28
TORSDOF 7
ENDMDL
MODEL 2
REMARK VINA RESULT:      -6.7      9.589     13.261
REMARK  Name = ZINC000009910163 ZINC09910163 CSC027488492 MCULE-9624540958 MolPort-005-796-296 PubChem-16372402
REMARK  7 active torsions:
REMARK  status: ('A' for Active; 'I' for Inactive)
REMARK    1  A    between atoms: C_1  and  S_28
REMARK    2  A    between atoms: C_9  and  C_13
REMARK    3  A    between atoms: N_15  and  C_17
REMARK    4  A    between atoms: C_17  and  C_18
REMARK    5  A    between atoms: S_28  and  N_31
REMARK    6  A    between atoms: N_31  and  C_33
REMARK    7  A    between atoms: N_31  and  C_34
REMARK                            x       y       z     vdW  Elec       q    Type
REMARK                         _______ _______ _______ _____ _____    ______ ____
ROOT
ATOM      1  C   UNL     1     -46.584  -5.138 -28.688  0.00  0.00    +0.000 A 
ATOM      2  C   UNL     1     -47.416  -4.084 -28.299  0.00  0.00    +0.000 A 
ATOM      3  C   UNL     1     -47.708  -3.881 -26.949  0.00  0.00    +0.000 A 
ATOM      4  C   UNL     1     -47.167  -4.728 -25.978  0.00  0.00    +0.000 A 
ATOM      5  N   UNL     1     -47.465  -4.528 -24.668  0.00  0.00    +0.000 N 
ATOM      6  C   UNL     1     -46.964  -5.329 -23.693  0.00  0.00    +0.000 A 
ATOM      7  O   UNL     1     -47.261  -5.114 -22.490  0.00  0.00    +0.000 OA
ATOM      8  C   UNL     1     -46.118  -6.387 -24.022  0.00  0.00    +0.000 A 
ATOM      9  C   UNL     1     -45.785  -6.638 -25.359  0.00  0.00    +0.000 A 
ATOM     10  C   UNL     1     -46.316  -5.793 -26.359  0.00  0.00    +0.000 A 
ATOM     11  C   UNL     1     -46.041  -5.989 -27.721  0.00  0.00    +0.000 A 
ATOM     12  H   UNL     1     -48.059  -3.783 -24.419  0.00  0.00    +0.000 HD
ENDROOT
BRANCH   9  13
ATOM     13  C   UNL     1     -44.849  -7.750 -25.668  0.00  0.00    +0.000 C 
ATOM     14  O   UNL     1     -43.618  -7.497 -25.789  0.00  0.00    +0.000 OA
ATOM     15  N   UNL     1     -45.305  -9.107 -25.811  0.00  0.00    +0.000 N 
ATOM     16  C   UNL     1     -44.332 -10.187 -25.902  0.00  0.00    +0.000 C 
BRANCH  15  17
ATOM     17  C   UNL     1     -46.702  -9.407 -26.114  0.00  0.00    +0.000 C 
BRANCH  17  18
ATOM     18  C   UNL     1     -46.812 -10.664 -26.917  0.00  0.00    +0.000 A 
ATOM     19  N   UNL     1     -47.186 -11.852 -26.403  0.00  0.00    +0.000 NA
ATOM     20  N   UNL     1     -47.131 -12.734 -27.390  0.00  0.00    +0.000 NA
ATOM     21  C   UNL     1     -46.703 -12.077 -28.485  0.00  0.00    +0.000 A 
ATOM     22  C   UNL     1     -46.638 -12.714 -29.842  0.00  0.00    +0.000 C 
ATOM     23  C   UNL     1     -45.573 -12.068 -30.719  0.00  0.00    +0.000 C 
ATOM     24  C   UNL     1     -46.075 -10.789 -31.396  0.00  0.00    +0.000 C 
ATOM     25  C   UNL     1     -46.748  -9.788 -30.450  0.00  0.00    +0.000 C 
ATOM     26  C   UNL     1     -46.034  -9.707 -29.108  0.00  0.00    +0.000 C 
ATOM     27  N   UNL     1     -46.503 -10.769 -28.221  0.00  0.00    +0.000 N 
ENDBRANCH  17  18
ENDBRANCH  15  17
ENDBRANCH   9  13
BRANCH   1  28
ATOM     28  S   UNL     1     -46.213  -5.402 -30.382  0.00  0.00    +0.000 S 
ATOM     29  O   UNL     1     -47.043  -6.541 -30.911  0.00  0.00    +0.000 OA
ATOM     30  O   UNL     1     -44.758  -5.756 -30.510  0.00  0.00    +0.000 OA
BRANCH  28  31
ATOM     31  N   UNL     1     -46.552  -3.956 -31.287  0.00  0.00    +0.000 NA
BRANCH  31  33
ATOM     32  C   UNL     1     -45.226  -1.930 -31.090  0.00  0.00    +0.000 C 
ATOM     33  C   UNL     1     -45.280  -3.343 -31.637  0.00  0.00    +0.000 C 
ENDBRANCH  31  33
BRANCH  31  34
ATOM     34  C   UNL     1     -47.181  -4.350 -32.538  0.00  0.00    +0.000 C 
ATOM     35  C   UNL     1     -46.124  -4.531 -33.607  0.00  0.00    +0.000 C 
ENDBRANCH  31  34
ENDBRANCH  28  31
ENDBRANCH   1  28
TORSDOF 7
ENDMDL
MODEL 3
REMARK VINA RESULT:      -6.6      3.725      6.803
REMARK  Name = ZINC000009910163 ZINC09910163 CSC027488492 MCULE-9624540958 MolPort-005-796-296 PubChem-16372402
REMARK  7 active torsions:
REMARK  status: ('A' for Active; 'I' for Inactive)
REMARK    1  A    between atoms: C_1  and  S_28
REMARK    2  A    between atoms: C_9  and  C_13
REMARK    3  A    between atoms: N_15  and  C_17
REMARK    4  A    between atoms: C_17  and  C_18
REMARK    5  A    between atoms: S_28  and  N_31
REMARK    6  A    between atoms: N_31  and  C_33
REMARK    7  A    between atoms: N_31  and  C_34
REMARK                            x       y       z     vdW  Elec       q    Type
REMARK                         _______ _______ _______ _____ _____    ______ ____
ROOT
ATOM      1  C   UNL     1     -42.100 -17.481 -28.003  0.00  0.00    +0.000 A 
ATOM      2  C   UNL     1     -42.281 -16.130 -28.313  0.00  0.00    +0.000 A 
ATOM      3  C   UNL     1     -43.302 -15.400 -27.701  0.00  0.00    +0.000 A 
ATOM      4  C   UNL     1     -44.145 -16.014 -26.771  0.00  0.00    +0.000 A 
ATOM      5  N   UNL     1     -45.141 -15.298 -26.188  0.00  0.00    +0.000 N 
ATOM      6  C   UNL     1     -45.984 -15.857 -25.283  0.00  0.00    +0.000 A 
ATOM      7  O   UNL     1     -46.896 -15.163 -24.762  0.00  0.00    +0.000 OA
ATOM      8  C   UNL     1     -45.841 -17.197 -24.926  0.00  0.00    +0.000 A 
ATOM      9  C   UNL     1     -44.833 -17.979 -25.503  0.00  0.00    +0.000 A 
ATOM     10  C   UNL     1     -43.965 -17.380 -26.442  0.00  0.00    +0.000 A 
ATOM     11  C   UNL     1     -42.941 -18.101 -27.075  0.00  0.00    +0.000 A 
ATOM     12  H   UNL     1     -45.254 -14.350 -26.428  0.00  0.00    +0.000 HD
ENDROOT
BRANCH   9  13
ATOM     13  C   UNL     1     -44.685 -19.393 -25.069  0.00  0.00    +0.000 C 
ATOM     14  O   UNL     1     -45.505 -20.252 -25.497  0.00  0.00    +0.000 OA
ATOM     15  N   UNL     1     -43.621 -19.810 -24.194  0.00  0.00    +0.000 N 
ATOM     16  C   UNL     1     -43.391 -21.230 -23.968  0.00  0.00    +0.000 C 
BRANCH  15  17
ATOM     17  C   UNL     1     -42.928 -18.851 -23.338  0.00  0.00    +0.000 C 
BRANCH  17  18
ATOM     18  C   UNL     1     -43.061 -19.235 -21.898  0.00  0.00    +0.000 A 
ATOM     19  N   UNL     1     -42.100 -19.868 -21.199  0.00  0.00    +0.000 NA
ATOM     20  N   UNL     1     -42.582 -20.076 -19.982  0.00  0.00    +0.000 NA
ATOM     21  C   UNL     1     -43.836 -19.587 -19.963  0.00  0.00    +0.000 A 
ATOM     22  C   UNL     1     -44.665 -19.520 -18.714  0.00  0.00    +0.000 C 
ATOM     23  C   UNL     1     -46.156 -19.570 -19.022  0.00  0.00    +0.000 C 
ATOM     24  C   UNL     1     -46.716 -18.198 -19.411  0.00  0.00    +0.000 C 
ATOM     25  C   UNL     1     -45.914 -17.464 -20.491  0.00  0.00    +0.000 C 
ATOM     26  C   UNL     1     -45.415 -18.413 -21.571  0.00  0.00    +0.000 C 
ATOM     27  N   UNL     1     -44.163 -19.041 -21.154  0.00  0.00    +0.000 N 
ENDBRANCH  17  18
ENDBRANCH  15  17
ENDBRANCH   9  13
BRANCH   1  28
ATOM     28  S   UNL     1     -40.822 -18.407 -28.770  0.00  0.00    +0.000 S 
ATOM     29  O   UNL     1     -39.842 -18.877 -27.728  0.00  0.00    +0.000 OA
ATOM     30  O   UNL     1     -40.105 -17.521 -29.750  0.00  0.00    +0.000 OA
BRANCH  28  31
ATOM     31  N   UNL     1     -41.505 -19.774 -29.598  0.00  0.00    +0.000 NA
BRANCH  31  33
ATOM     32  C   UNL     1     -42.871 -20.420 -31.500  0.00  0.00    +0.000 C 
ATOM     33  C   UNL     1     -42.120 -19.290 -30.824  0.00  0.00    +0.000 C 
ENDBRANCH  31  33
BRANCH  31  34
ATOM     34  C   UNL     1     -40.412 -20.646 -29.996  0.00  0.00    +0.000 C 
ATOM     35  C   UNL     1     -40.455 -21.925 -29.185  0.00  0.00    +0.000 C 
ENDBRANCH  31  34
ENDBRANCH  28  31
ENDBRANCH   1  28
TORSDOF 7
ENDMDL
