MODEL 1
REMARK VINA RESULT:      -6.0      0.000      0.000
REMARK  Name = ZINC000222958584 PubChem-100170263
REMARK  7 active torsions:
REMARK  status: ('A' for Active; 'I' for Inactive)
REMARK    1  A    between atoms: C_2  and  C_3
REMARK    2  A    between atoms: C_3  and  C_4
REMARK    3  A    between atoms: C_3  and  O_24
REMARK    4  A    between atoms: C_5  and  N_25
REMARK    5  A    between atoms: C_9  and  C_11
REMARK    6  A    between atoms: C_11  and  O_23
REMARK    7  A    between atoms: C_13  and  O_24
REMARK                            x       y       z     vdW  Elec       q    Type
REMARK                         _______ _______ _______ _____ _____    ______ ____
ROOT
ATOM      1  C   UNL     1     -46.783  -6.213 -29.267  0.00  0.00    +0.000 C 
ATOM      2  O   UNL     1     -47.479  -5.358 -28.661  0.00  0.00    +0.000 OA
ATOM      3  N   UNL     1     -45.902  -7.052 -28.513  0.00  0.00    +0.000 NA
ENDROOT
BRANCH   3   4
ATOM      4  C   UNL     1     -45.605  -8.419 -28.813  0.00  0.00    +0.000 A 
ATOM      5  C   UNL     1     -44.485  -8.738 -29.596  0.00  0.00    +0.000 A 
ATOM      6  C   UNL     1     -44.175 -10.074 -29.860  0.00  0.00    +0.000 A 
ATOM      7  C   UNL     1     -44.959 -11.098 -29.322  0.00  0.00    +0.000 A 
ATOM      8  C   UNL     1     -46.058 -10.793 -28.508  0.00  0.00    +0.000 A 
ATOM      9  C   UNL     1     -46.374  -9.451 -28.260  0.00  0.00    +0.000 A 
ATOM     10 CL   UNL     1     -43.473  -7.483 -30.290  0.00  0.00    +0.000 Cl
BRANCH   8  11
ATOM     11  C   UNL     1     -46.859 -11.875 -27.913  0.00  0.00    +0.000 C 
ATOM     12  O   UNL     1     -47.336 -12.784 -28.647  0.00  0.00    +0.000 OA
BRANCH  11  14
ATOM     13  C   UNL     1     -46.046 -12.148 -25.605  0.00  0.00    +0.000 C 
ATOM     14  O   UNL     1     -47.088 -11.892 -26.535  0.00  0.00    +0.000 OA
ENDBRANCH  11  14
ENDBRANCH   8  11
ENDBRANCH   3   4
BRANCH   1  15
ATOM     15  C   UNL     1     -46.807  -6.229 -30.766  0.00  0.00    +0.000 C 
BRANCH  15  17
ATOM     16  C   UNL     1     -46.901  -8.001 -32.514  0.00  0.00    +0.000 C 
ATOM     17  C   UNL     1     -47.585  -7.427 -31.289  0.00  0.00    +0.000 C 
ENDBRANCH  15  17
BRANCH  15  18
ATOM     18  O   UNL     1     -47.338  -5.019 -31.296  0.00  0.00    +0.000 OA
BRANCH  18  19
ATOM     19  C   UNL     1     -46.530  -3.968 -31.741  0.00  0.00    +0.000 A 
ATOM     20  C   UNL     1     -46.436  -3.697 -33.116  0.00  0.00    +0.000 A 
ATOM     21  C   UNL     1     -45.626  -2.651 -33.570  0.00  0.00    +0.000 A 
ATOM     22  C   UNL     1     -44.907  -1.873 -32.660  0.00  0.00    +0.000 A 
ATOM     23  C   UNL     1     -44.991  -2.139 -31.292  0.00  0.00    +0.000 A 
ATOM     24  C   UNL     1     -45.799  -3.183 -30.834  0.00  0.00    +0.000 A 
ATOM     25  C   UNL     1     -44.049  -0.764 -33.152  0.00  0.00    +0.000 C 
ATOM     26  C   UNL     1     -47.145  -4.548 -34.110  0.00  0.00    +0.000 C 
ENDBRANCH  18  19
ENDBRANCH  15  18
ENDBRANCH   1  15
TORSDOF 7
ENDMDL
MODEL 2
REMARK VINA RESULT:      -6.0      8.424     13.324
REMARK  Name = ZINC000222958584 PubChem-100170263
REMARK  7 active torsions:
REMARK  status: ('A' for Active; 'I' for Inactive)
REMARK    1  A    between atoms: C_2  and  C_3
REMARK    2  A    between atoms: C_3  and  C_4
REMARK    3  A    between atoms: C_3  and  O_24
REMARK    4  A    between atoms: C_5  and  N_25
REMARK    5  A    between atoms: C_9  and  C_11
REMARK    6  A    between atoms: C_11  and  O_23
REMARK    7  A    between atoms: C_13  and  O_24
REMARK                            x       y       z     vdW  Elec       q    Type
REMARK                         _______ _______ _______ _____ _____    ______ ____
ROOT
ATOM      1  C   UNL     1     -43.198 -17.514 -23.415  0.00  0.00    +0.000 C 
ATOM      2  O   UNL     1     -42.295 -18.259 -22.954  0.00  0.00    +0.000 OA
ATOM      3  N   UNL     1     -42.825 -16.307 -24.088  0.00  0.00    +0.000 NA
ENDROOT
BRANCH   3   4
ATOM      4  C   UNL     1     -43.510 -15.740 -25.208  0.00  0.00    +0.000 A 
ATOM      5  C   UNL     1     -43.317 -16.272 -26.493  0.00  0.00    +0.000 A 
ATOM      6  C   UNL     1     -44.013 -15.741 -27.581  0.00  0.00    +0.000 A 
ATOM      7  C   UNL     1     -44.925 -14.700 -27.393  0.00  0.00    +0.000 A 
ATOM      8  C   UNL     1     -45.154 -14.185 -26.110  0.00  0.00    +0.000 A 
ATOM      9  C   UNL     1     -44.442 -14.709 -25.024  0.00  0.00    +0.000 A 
ATOM     10 CL   UNL     1     -42.182 -17.582 -26.773  0.00  0.00    +0.000 Cl
BRANCH   8  11
ATOM     11  C   UNL     1     -46.143 -13.113 -25.911  0.00  0.00    +0.000 C 
ATOM     12  O   UNL     1     -46.989 -12.859 -26.812  0.00  0.00    +0.000 OA
BRANCH  11  14
ATOM     13  C   UNL     1     -45.445 -11.148 -24.602  0.00  0.00    +0.000 C 
ATOM     14  O   UNL     1     -46.141 -12.379 -24.722  0.00  0.00    +0.000 OA
ENDBRANCH  11  14
ENDBRANCH   8  11
ENDBRANCH   3   4
BRANCH   1  15
ATOM     15  C   UNL     1     -44.628 -17.852 -23.124  0.00  0.00    +0.000 C 
BRANCH  15  17
ATOM     16  C   UNL     1     -46.178 -18.532 -24.952  0.00  0.00    +0.000 C 
ATOM     17  C   UNL     1     -45.105 -19.007 -23.992  0.00  0.00    +0.000 C 
ENDBRANCH  15  17
BRANCH  15  18
ATOM     18  O   UNL     1     -44.829 -18.148 -21.747  0.00  0.00    +0.000 OA
BRANCH  18  19
ATOM     19  C   UNL     1     -45.542 -17.306 -20.887  0.00  0.00    +0.000 A 
ATOM     20  C   UNL     1     -46.218 -17.850 -19.783  0.00  0.00    +0.000 A 
ATOM     21  C   UNL     1     -46.938 -17.015 -18.921  0.00  0.00    +0.000 A 
ATOM     22  C   UNL     1     -46.988 -15.639 -19.155  0.00  0.00    +0.000 A 
ATOM     23  C   UNL     1     -46.323 -15.091 -20.254  0.00  0.00    +0.000 A 
ATOM     24  C   UNL     1     -45.603 -15.921 -21.117  0.00  0.00    +0.000 A 
ATOM     25  C   UNL     1     -47.756 -14.761 -18.235  0.00  0.00    +0.000 C 
ATOM     26  C   UNL     1     -46.229 -19.319 -19.545  0.00  0.00    +0.000 C 
ENDBRANCH  18  19
ENDBRANCH  15  18
ENDBRANCH   1  15
TORSDOF 7
ENDMDL
MODEL 3
REMARK VINA RESULT:      -5.9     11.996     15.915
REMARK  Name = ZINC000222958584 PubChem-100170263
REMARK  7 active torsions:
REMARK  status: ('A' for Active; 'I' for Inactive)
REMARK    1  A    between atoms: C_2  and  C_3
REMARK    2  A    between atoms: C_3  and  C_4
REMARK    3  A    between atoms: C_3  and  O_24
REMARK    4  A    between atoms: C_5  and  N_25
REMARK    5  A    between atoms: C_9  and  C_11
REMARK    6  A    between atoms: C_11  and  O_23
REMARK    7  A    between atoms: C_13  and  O_24
REMARK                            x       y       z     vdW  Elec       q    Type
REMARK                         _______ _______ _______ _____ _____    ______ ____
ROOT
ATOM      1  C   UNL     1     -45.493 -19.026 -24.429  0.00  0.00    +0.000 C 
ATOM      2  O   UNL     1     -46.547 -18.821 -25.085  0.00  0.00    +0.000 OA
ATOM      3  N   UNL     1     -44.787 -20.257 -24.616  0.00  0.00    +0.000 NA
ENDROOT
BRANCH   3   4
ATOM      4  C   UNL     1     -43.365 -20.408 -24.572  0.00  0.00    +0.000 A 
ATOM      5  C   UNL     1     -42.570 -19.863 -25.592  0.00  0.00    +0.000 A 
ATOM      6  C   UNL     1     -41.180 -19.981 -25.531  0.00  0.00    +0.000 A 
ATOM      7  C   UNL     1     -40.574 -20.614 -24.444  0.00  0.00    +0.000 A 
ATOM      8  C   UNL     1     -41.355 -21.129 -23.401  0.00  0.00    +0.000 A 
ATOM      9  C   UNL     1     -42.750 -21.024 -23.474  0.00  0.00    +0.000 A 
ATOM     10 CL   UNL     1     -43.291 -19.058 -26.976  0.00  0.00    +0.000 Cl
BRANCH   8  11
ATOM     11  C   UNL     1     -40.711 -21.763 -22.240  0.00  0.00    +0.000 C 
ATOM     12  O   UNL     1     -39.489 -21.554 -22.003  0.00  0.00    +0.000 OA
BRANCH  11  14
ATOM     13  C   UNL     1     -41.276 -22.596 -19.993  0.00  0.00    +0.000 C 
ATOM     14  O   UNL     1     -41.456 -22.595 -21.401  0.00  0.00    +0.000 OA
ENDBRANCH  11  14
ENDBRANCH   8  11
ENDBRANCH   3   4
BRANCH   1  15
ATOM     15  C   UNL     1     -45.094 -18.031 -23.381  0.00  0.00    +0.000 C 
BRANCH  15  17
ATOM     16  C   UNL     1     -44.355 -15.901 -24.440  0.00  0.00    +0.000 C 
ATOM     17  C   UNL     1     -45.511 -16.623 -23.776  0.00  0.00    +0.000 C 
ENDBRANCH  15  17
BRANCH  15  18
ATOM     18  O   UNL     1     -45.625 -18.370 -22.105  0.00  0.00    +0.000 OA
BRANCH  18  19
ATOM     19  C   UNL     1     -44.819 -18.719 -21.017  0.00  0.00    +0.000 A 
ATOM     20  C   UNL     1     -45.414 -19.148 -19.819  0.00  0.00    +0.000 A 
ATOM     21  C   UNL     1     -44.614 -19.494 -18.725  0.00  0.00    +0.000 A 
ATOM     22  C   UNL     1     -43.223 -19.413 -18.817  0.00  0.00    +0.000 A 
ATOM     23  C   UNL     1     -42.624 -18.981 -20.002  0.00  0.00    +0.000 A 
ATOM     24  C   UNL     1     -43.418 -18.635 -21.098  0.00  0.00    +0.000 A 
ATOM     25  C   UNL     1     -42.382 -19.782 -17.649  0.00  0.00    +0.000 C 
ATOM     26  C   UNL     1     -46.894 -19.188 -19.676  0.00  0.00    +0.000 C 
ENDBRANCH  18  19
ENDBRANCH  15  18
ENDBRANCH   1  15
TORSDOF 7
ENDMDL
