MODEL 1
REMARK VINA RESULT:      -7.8      0.000      0.000
REMARK  Name = ZINC000257179241
REMARK  3 active torsions:
REMARK  status: ('A' for Active; 'I' for Inactive)
REMARK    1  A    between atoms: C_1  and  C_20
REMARK    2  A    between atoms: C_7  and  C_22
REMARK    3  A    between atoms: C_24  and  C_27
REMARK                            x       y       z     vdW  Elec       q    Type
REMARK                         _______ _______ _______ _____ _____    ______ ____
ROOT
ATOM      1  C   UNL     1     -46.586  -4.942 -31.641  0.00  0.00    +0.000 C 
ATOM      2  O   UNL     1     -47.744  -4.781 -31.171  0.00  0.00    +0.000 OA
ATOM      3  N   UNL     1     -46.045  -6.277 -31.750  0.00  0.00    +0.000 N 
ATOM      4  C   UNL     1     -46.941  -7.430 -31.775  0.00  0.00    +0.000 C 
ATOM      5  C   UNL     1     -47.567  -7.688 -30.408  0.00  0.00    +0.000 C 
ATOM      6  C   UNL     1     -46.666  -8.558 -29.543  0.00  0.00    +0.000 C 
ATOM      7  C   UNL     1     -45.552  -7.731 -28.917  0.00  0.00    +0.000 C 
ATOM      8  C   UNL     1     -44.335  -8.590 -28.606  0.00  0.00    +0.000 C 
ATOM      9  C   UNL     1     -43.645  -9.026 -29.892  0.00  0.00    +0.000 C 
ATOM     10  N   UNL     1     -42.486  -8.190 -30.186  0.00  0.00    +0.000 N 
ATOM     11  C   UNL     1     -42.545  -6.827 -30.626  0.00  0.00    +0.000 C 
ATOM     12  O   UNL     1     -41.479  -6.234 -30.937  0.00  0.00    +0.000 OA
ATOM     13  C   UNL     1     -43.836  -6.089 -30.725  0.00  0.00    +0.000 C 
ATOM     14  C   UNL     1     -44.623  -6.538 -31.945  0.00  0.00    +0.000 C 
ATOM     15  H   UNL     1     -41.595  -8.592 -30.074  0.00  0.00    +0.000 HD
ENDROOT
BRANCH   1  20
ATOM     16  C   UNL     1     -44.041  -0.223 -32.022  0.00  0.00    +0.000 C 
ATOM     17  C   UNL     1     -44.674  -1.549 -32.238  0.00  0.00    +0.000 A 
ATOM     18  C   UNL     1     -44.751  -2.209 -33.455  0.00  0.00    +0.000 A 
ATOM     19  C   UNL     1     -45.410  -3.443 -33.359  0.00  0.00    +0.000 A 
ATOM     20  C   UNL     1     -45.834  -3.743 -32.067  0.00  0.00    +0.000 A 
ATOM     21  S   UNL     1     -45.413  -2.471 -31.047  0.00  0.00    +0.000 S 
ENDBRANCH   1  20
BRANCH   7  22
ATOM     22  C   UNL     1     -46.032  -7.027 -27.694  0.00  0.00    +0.000 A 
ATOM     23  N   UNL     1     -46.213  -5.694 -27.628  0.00  0.00    +0.000 NA
ATOM     24  C   UNL     1     -46.649  -5.550 -26.359  0.00  0.00    +0.000 A 
ATOM     25  N   UNL     1     -46.725  -6.725 -25.702  0.00  0.00    +0.000 NA
ATOM     26  O   UNL     1     -46.334  -7.615 -26.563  0.00  0.00    +0.000 OA
BRANCH  24  27
ATOM     27  C   UNL     1     -47.006  -4.254 -25.763  0.00  0.00    +0.000 A 
ATOM     28  C   UNL     1     -47.032  -4.097 -24.370  0.00  0.00    +0.000 A 
ATOM     29  C   UNL     1     -47.372  -2.865 -23.804  0.00  0.00    +0.000 A 
ATOM     30  C   UNL     1     -47.689  -1.781 -24.628  0.00  0.00    +0.000 A 
ATOM     31  C   UNL     1     -47.665  -1.930 -26.018  0.00  0.00    +0.000 A 
ATOM     32  C   UNL     1     -47.324  -3.162 -26.584  0.00  0.00    +0.000 A 
ENDBRANCH  24  27
ENDBRANCH   7  22
TORSDOF 3
ENDMDL
MODEL 2
REMARK VINA RESULT:      -7.4      2.749      5.254
REMARK  Name = ZINC000257179241
REMARK  3 active torsions:
REMARK  status: ('A' for Active; 'I' for Inactive)
REMARK    1  A    between atoms: C_1  and  C_20
REMARK    2  A    between atoms: C_7  and  C_22
REMARK    3  A    between atoms: C_24  and  C_27
REMARK                            x       y       z     vdW  Elec       q    Type
REMARK                         _______ _______ _______ _____ _____    ______ ____
ROOT
ATOM      1  C   UNL     1     -42.633  -6.924 -29.190  0.00  0.00    +0.000 C 
ATOM      2  O   UNL     1     -42.538  -5.707 -29.503  0.00  0.00    +0.000 OA
ATOM      3  N   UNL     1     -43.479  -7.793 -29.974  0.00  0.00    +0.000 N 
ATOM      4  C   UNL     1     -43.840  -7.426 -31.341  0.00  0.00    +0.000 C 
ATOM      5  C   UNL     1     -44.831  -6.266 -31.371  0.00  0.00    +0.000 C 
ATOM      6  C   UNL     1     -46.265  -6.763 -31.254  0.00  0.00    +0.000 C 
ATOM      7  C   UNL     1     -46.617  -7.073 -29.806  0.00  0.00    +0.000 C 
ATOM      8  C   UNL     1     -47.721  -8.114 -29.716  0.00  0.00    +0.000 C 
ATOM      9  C   UNL     1     -47.207  -9.479 -30.157  0.00  0.00    +0.000 C 
ATOM     10  N   UNL     1     -46.868 -10.317 -29.012  0.00  0.00    +0.000 N 
ATOM     11  C   UNL     1     -45.738 -10.118 -28.153  0.00  0.00    +0.000 C 
ATOM     12  O   UNL     1     -45.495 -10.962 -27.251  0.00  0.00    +0.000 OA
ATOM     13  C   UNL     1     -44.840  -8.938 -28.298  0.00  0.00    +0.000 C 
ATOM     14  C   UNL     1     -43.923  -9.100 -29.501  0.00  0.00    +0.000 C 
ATOM     15  H   UNL     1     -47.460 -11.078 -28.815  0.00  0.00    +0.000 HD
ENDROOT
BRANCH   1  20
ATOM     16  C   UNL     1     -39.276  -9.405 -25.804  0.00  0.00    +0.000 C 
ATOM     17  C   UNL     1     -40.314  -8.574 -26.465  0.00  0.00    +0.000 A 
ATOM     18  C   UNL     1     -41.191  -7.721 -25.812  0.00  0.00    +0.000 A 
ATOM     19  C   UNL     1     -42.065  -7.068 -26.692  0.00  0.00    +0.000 A 
ATOM     20  C   UNL     1     -41.859  -7.407 -28.027  0.00  0.00    +0.000 A 
ATOM     21  S   UNL     1     -40.609  -8.532 -28.116  0.00  0.00    +0.000 S 
ENDBRANCH   1  20
BRANCH   7  22
ATOM     22  C   UNL     1     -46.995  -5.832 -29.071  0.00  0.00    +0.000 A 
ATOM     23  N   UNL     1     -46.778  -5.655 -27.754  0.00  0.00    +0.000 NA
ATOM     24  C   UNL     1     -47.272  -4.412 -27.571  0.00  0.00    +0.000 A 
ATOM     25  N   UNL     1     -47.756  -3.875 -28.708  0.00  0.00    +0.000 NA
ATOM     26  O   UNL     1     -47.566  -4.786 -29.615  0.00  0.00    +0.000 OA
BRANCH  24  27
ATOM     27  C   UNL     1     -47.275  -3.720 -26.273  0.00  0.00    +0.000 A 
ATOM     28  C   UNL     1     -47.334  -2.321 -26.216  0.00  0.00    +0.000 A 
ATOM     29  C   UNL     1     -47.337  -1.664 -24.981  0.00  0.00    +0.000 A 
ATOM     30  C   UNL     1     -47.280  -2.403 -23.797  0.00  0.00    +0.000 A 
ATOM     31  C   UNL     1     -47.221  -3.799 -23.846  0.00  0.00    +0.000 A 
ATOM     32  C   UNL     1     -47.219  -4.456 -25.080  0.00  0.00    +0.000 A 
ENDBRANCH  24  27
ENDBRANCH   7  22
TORSDOF 3
ENDMDL
MODEL 3
REMARK VINA RESULT:      -7.0      3.767      6.779
REMARK  Name = ZINC000257179241
REMARK  3 active torsions:
REMARK  status: ('A' for Active; 'I' for Inactive)
REMARK    1  A    between atoms: C_1  and  C_20
REMARK    2  A    between atoms: C_7  and  C_22
REMARK    3  A    between atoms: C_24  and  C_27
REMARK                            x       y       z     vdW  Elec       q    Type
REMARK                         _______ _______ _______ _____ _____    ______ ____
ROOT
ATOM      1  C   UNL     1     -43.422  -8.226 -25.551  0.00  0.00    +0.000 C 
ATOM      2  O   UNL     1     -42.964  -7.052 -25.556  0.00  0.00    +0.000 OA
ATOM      3  N   UNL     1     -43.642  -8.905 -26.807  0.00  0.00    +0.000 N 
ATOM      4  C   UNL     1     -42.935  -8.470 -28.009  0.00  0.00    +0.000 C 
ATOM      5  C   UNL     1     -43.467  -7.135 -28.523  0.00  0.00    +0.000 C 
ATOM      6  C   UNL     1     -44.662  -7.334 -29.443  0.00  0.00    +0.000 C 
ATOM      7  C   UNL     1     -45.933  -7.571 -28.640  0.00  0.00    +0.000 C 
ATOM      8  C   UNL     1     -46.951  -8.370 -29.438  0.00  0.00    +0.000 C 
ATOM      9  C   UNL     1     -46.482  -9.809 -29.615  0.00  0.00    +0.000 C 
ATOM     10  N   UNL     1     -47.125 -10.702 -28.656  0.00  0.00    +0.000 N 
ATOM     11  C   UNL     1     -46.847 -10.736 -27.250  0.00  0.00    +0.000 C 
ATOM     12  O   UNL     1     -47.398 -11.613 -26.535  0.00  0.00    +0.000 OA
ATOM     13  C   UNL     1     -45.922  -9.759 -26.609  0.00  0.00    +0.000 C 
ATOM     14  C   UNL     1     -44.474 -10.098 -26.923  0.00  0.00    +0.000 C 
ATOM     15  H   UNL     1     -47.800 -11.329 -29.000  0.00  0.00    +0.000 HD
ENDROOT
BRANCH   1  20
ATOM     16  C   UNL     1     -43.536 -11.277 -21.127  0.00  0.00    +0.000 C 
ATOM     17  C   UNL     1     -43.764 -10.287 -22.210  0.00  0.00    +0.000 A 
ATOM     18  C   UNL     1     -44.788  -9.351 -22.235  0.00  0.00    +0.000 A 
ATOM     19  C   UNL     1     -44.759  -8.549 -23.385  0.00  0.00    +0.000 A 
ATOM     20  C   UNL     1     -43.708  -8.857 -24.246  0.00  0.00    +0.000 A 
ATOM     21  S   UNL     1     -42.827 -10.136 -23.593  0.00  0.00    +0.000 S 
ENDBRANCH   1  20
BRANCH   7  22
ATOM     22  C   UNL     1     -46.518  -6.282 -28.173  0.00  0.00    +0.000 A 
ATOM     23  N   UNL     1     -46.364  -5.808 -26.922  0.00  0.00    +0.000 NA
ATOM     24  C   UNL     1     -47.050  -4.647 -26.994  0.00  0.00    +0.000 A 
ATOM     25  N   UNL     1     -47.583  -4.437 -28.215  0.00  0.00    +0.000 NA
ATOM     26  O   UNL     1     -47.230  -5.472 -28.916  0.00  0.00    +0.000 OA
BRANCH  24  27
ATOM     27  C   UNL     1     -47.193  -3.714 -25.867  0.00  0.00    +0.000 A 
ATOM     28  C   UNL     1     -47.169  -4.187 -24.548  0.00  0.00    +0.000 A 
ATOM     29  C   UNL     1     -47.307  -3.299 -23.476  0.00  0.00    +0.000 A 
ATOM     30  C   UNL     1     -47.468  -1.932 -23.718  0.00  0.00    +0.000 A 
ATOM     31  C   UNL     1     -47.493  -1.453 -25.031  0.00  0.00    +0.000 A 
ATOM     32  C   UNL     1     -47.356  -2.341 -26.102  0.00  0.00    +0.000 A 
ENDBRANCH  24  27
ENDBRANCH   7  22
TORSDOF 3
ENDMDL
