MODEL 1
REMARK VINA RESULT:      -6.0      0.000      0.000
REMARK  Name = ZINC001529174993 MolPort-046-525-132
REMARK  5 active torsions:
REMARK  status: ('A' for Active; 'I' for Inactive)
REMARK    1  A    between atoms: N_1  and  C_19
REMARK    2  A    between atoms: C_2  and  C_5
REMARK    3  A    between atoms: C_11  and  C_13
REMARK    4  A    between atoms: C_19  and  C_21
REMARK    5  A    between atoms: C_20  and  O_30
REMARK                            x       y       z     vdW  Elec       q    Type
REMARK                         _______ _______ _______ _____ _____    ______ ____
ROOT
ATOM      1  N   UNL     1     -46.959  -5.383 -34.265  0.00  0.00    +0.000 N 
ATOM      2  C   UNL     1     -46.359  -6.682 -34.275  0.00  0.00    +0.000 C 
ATOM      3  O   UNL     1     -46.022  -7.196 -35.374  0.00  0.00    +0.000 OA
ATOM      4  H   UNL     1     -47.084  -4.922 -35.125  0.00  0.00    +0.000 HD
ENDROOT
BRANCH   2   5
ATOM      5  C   UNL     1     -46.115  -7.428 -32.998  0.00  0.00    +0.000 C 
ATOM      6  O   UNL     1     -46.890  -8.606 -32.978  0.00  0.00    +0.000 OA
ATOM      7  C   UNL     1     -46.936  -9.050 -31.643  0.00  0.00    +0.000 C 
ATOM      8  C   UNL     1     -45.561  -9.409 -31.167  0.00  0.00    +0.000 C 
ATOM      9  O   UNL     1     -45.397 -10.281 -30.276  0.00  0.00    +0.000 OA
ATOM     10  N   UNL     1     -44.441  -8.713 -31.716  0.00  0.00    +0.000 N 
ATOM     11  C   UNL     1     -44.623  -7.775 -32.823  0.00  0.00    +0.000 C 
ATOM     12  H   UNL     1     -43.541  -8.865 -31.346  0.00  0.00    +0.000 HD
BRANCH  11  13
ATOM     13  C   UNL     1     -43.787  -6.552 -32.604  0.00  0.00    +0.000 A 
ATOM     14  C   UNL     1     -43.767  -5.954 -31.340  0.00  0.00    +0.000 A 
ATOM     15  C   UNL     1     -42.986  -4.817 -31.113  0.00  0.00    +0.000 A 
ATOM     16  C   UNL     1     -42.223  -4.273 -32.150  0.00  0.00    +0.000 A 
ATOM     17  C   UNL     1     -42.242  -4.866 -33.416  0.00  0.00    +0.000 A 
ATOM     18  C   UNL     1     -43.022  -6.003 -33.644  0.00  0.00    +0.000 A 
ENDBRANCH  11  13
ENDBRANCH   2   5
BRANCH   1  19
ATOM     19  C   UNL     1     -47.398  -4.704 -33.050  0.00  0.00    +0.000 C 
BRANCH  19  21
ATOM     20  C   UNL     1     -46.407  -3.114 -31.354  0.00  0.00    +0.000 A 
ATOM     21  C   UNL     1     -46.442  -3.615 -32.676  0.00  0.00    +0.000 A 
ATOM     22  C   UNL     1     -45.574  -3.095 -33.652  0.00  0.00    +0.000 A 
ATOM     23  C   UNL     1     -44.695  -2.075 -33.292  0.00  0.00    +0.000 A 
ATOM     24  C   UNL     1     -43.719  -1.405 -34.175  0.00  0.00    +0.000 C 
ATOM     25  C   UNL     1     -43.038  -0.379 -33.257  0.00  0.00    +0.000 C 
ATOM     26  C   UNL     1     -43.662  -0.507 -31.859  0.00  0.00    +0.000 C 
ATOM     27  C   UNL     1     -44.663  -1.581 -32.017  0.00  0.00    +0.000 A 
ATOM     28  C   UNL     1     -45.506  -2.081 -31.027  0.00  0.00    +0.000 A 
BRANCH  20  30
ATOM     29  C   UNL     1     -46.834  -4.572 -29.396  0.00  0.00    +0.000 C 
ATOM     30  O   UNL     1     -47.268  -3.652 -30.389  0.00  0.00    +0.000 OA
ENDBRANCH  20  30
ENDBRANCH  19  21
ENDBRANCH   1  19
TORSDOF 5
ENDMDL
MODEL 2
REMARK VINA RESULT:      -5.8     12.487     16.781
REMARK  Name = ZINC001529174993 MolPort-046-525-132
REMARK  5 active torsions:
REMARK  status: ('A' for Active; 'I' for Inactive)
REMARK    1  A    between atoms: N_1  and  C_19
REMARK    2  A    between atoms: C_2  and  C_5
REMARK    3  A    between atoms: C_11  and  C_13
REMARK    4  A    between atoms: C_19  and  C_21
REMARK    5  A    between atoms: C_20  and  O_30
REMARK                            x       y       z     vdW  Elec       q    Type
REMARK                         _______ _______ _______ _____ _____    ______ ____
ROOT
ATOM      1  N   UNL     1     -46.375 -14.331 -21.813  0.00  0.00    +0.000 N 
ATOM      2  C   UNL     1     -46.589 -13.934 -20.455  0.00  0.00    +0.000 C 
ATOM      3  O   UNL     1     -47.755 -13.646 -20.075  0.00  0.00    +0.000 OA
ATOM      4  H   UNL     1     -47.154 -14.376 -22.412  0.00  0.00    +0.000 HD
ENDROOT
BRANCH   2   5
ATOM      5  C   UNL     1     -45.452 -13.870 -19.481  0.00  0.00    +0.000 C 
ATOM      6  O   UNL     1     -45.341 -12.565 -18.962  0.00  0.00    +0.000 OA
ATOM      7  C   UNL     1     -44.061 -12.455 -18.384  0.00  0.00    +0.000 C 
ATOM      8  C   UNL     1     -43.927 -13.407 -17.235  0.00  0.00    +0.000 C 
ATOM      9  O   UNL     1     -43.155 -13.152 -16.275  0.00  0.00    +0.000 OA
ATOM     10  N   UNL     1     -44.661 -14.632 -17.269  0.00  0.00    +0.000 N 
ATOM     11  C   UNL     1     -45.635 -14.881 -18.331  0.00  0.00    +0.000 C 
ATOM     12  H   UNL     1     -44.512 -15.312 -16.573  0.00  0.00    +0.000 HD
BRANCH  11  13
ATOM     13  C   UNL     1     -45.524 -16.297 -18.809  0.00  0.00    +0.000 A 
ATOM     14  C   UNL     1     -44.259 -16.878 -18.939  0.00  0.00    +0.000 A 
ATOM     15  C   UNL     1     -44.135 -18.201 -19.376  0.00  0.00    +0.000 A 
ATOM     16  C   UNL     1     -45.277 -18.945 -19.683  0.00  0.00    +0.000 A 
ATOM     17  C   UNL     1     -46.544 -18.368 -19.556  0.00  0.00    +0.000 A 
ATOM     18  C   UNL     1     -46.668 -17.046 -19.121  0.00  0.00    +0.000 A 
ENDBRANCH  11  13
ENDBRANCH   2   5
BRANCH   1  19
ATOM     19  C   UNL     1     -45.065 -14.671 -22.358  0.00  0.00    +0.000 C 
BRANCH  19  21
ATOM     20  C   UNL     1     -45.914 -16.017 -24.321  0.00  0.00    +0.000 A 
ATOM     21  C   UNL     1     -45.132 -15.942 -23.146  0.00  0.00    +0.000 A 
ATOM     22  C   UNL     1     -44.404 -17.063 -22.709  0.00  0.00    +0.000 A 
ATOM     23  C   UNL     1     -44.481 -18.242 -23.447  0.00  0.00    +0.000 A 
ATOM     24  C   UNL     1     -43.797 -19.514 -23.143  0.00  0.00    +0.000 C 
ATOM     25  C   UNL     1     -44.244 -20.451 -24.275  0.00  0.00    +0.000 C 
ATOM     26  C   UNL     1     -45.183 -19.662 -25.199  0.00  0.00    +0.000 C 
ATOM     27  C   UNL     1     -45.244 -18.323 -24.579  0.00  0.00    +0.000 A 
ATOM     28  C   UNL     1     -45.970 -17.228 -25.041  0.00  0.00    +0.000 A 
BRANCH  20  30
ATOM     29  C   UNL     1     -46.213 -14.099 -25.861  0.00  0.00    +0.000 C 
ATOM     30  O   UNL     1     -46.623 -14.889 -24.752  0.00  0.00    +0.000 OA
ENDBRANCH  20  30
ENDBRANCH  19  21
ENDBRANCH   1  19
TORSDOF 5
ENDMDL
MODEL 3
REMARK VINA RESULT:      -5.5      2.187      3.245
REMARK  Name = ZINC001529174993 MolPort-046-525-132
REMARK  5 active torsions:
REMARK  status: ('A' for Active; 'I' for Inactive)
REMARK    1  A    between atoms: N_1  and  C_19
REMARK    2  A    between atoms: C_2  and  C_5
REMARK    3  A    between atoms: C_11  and  C_13
REMARK    4  A    between atoms: C_19  and  C_21
REMARK    5  A    between atoms: C_20  and  O_30
REMARK                            x       y       z     vdW  Elec       q    Type
REMARK                         _______ _______ _______ _____ _____    ______ ____
ROOT
ATOM      1  N   UNL     1     -47.238  -6.935 -31.406  0.00  0.00    +0.000 N 
ATOM      2  C   UNL     1     -46.292  -7.791 -30.758  0.00  0.00    +0.000 C 
ATOM      3  O   UNL     1     -46.092  -8.947 -31.218  0.00  0.00    +0.000 OA
ATOM      4  H   UNL     1     -47.701  -7.274 -32.205  0.00  0.00    +0.000 HD
ENDROOT
BRANCH   2   5
ATOM      5  C   UNL     1     -45.531  -7.328 -29.553  0.00  0.00    +0.000 C 
ATOM      6  O   UNL     1     -45.972  -8.028 -28.412  0.00  0.00    +0.000 OA
ATOM      7  C   UNL     1     -45.534  -7.304 -27.286  0.00  0.00    +0.000 C 
ATOM      8  C   UNL     1     -44.037  -7.269 -27.240  0.00  0.00    +0.000 C 
ATOM      9  O   UNL     1     -43.429  -7.173 -26.143  0.00  0.00    +0.000 OA
ATOM     10  N   UNL     1     -43.312  -7.305 -28.471  0.00  0.00    +0.000 N 
ATOM     11  C   UNL     1     -44.012  -7.520 -29.736  0.00  0.00    +0.000 C 
ATOM     12  H   UNL     1     -42.334  -7.185 -28.466  0.00  0.00    +0.000 HD
BRANCH  11  13
ATOM     13  C   UNL     1     -43.457  -6.614 -30.791  0.00  0.00    +0.000 A 
ATOM     14  C   UNL     1     -43.046  -5.324 -30.439  0.00  0.00    +0.000 A 
ATOM     15  C   UNL     1     -42.517  -4.466 -31.409  0.00  0.00    +0.000 A 
ATOM     16  C   UNL     1     -42.399  -4.895 -32.733  0.00  0.00    +0.000 A 
ATOM     17  C   UNL     1     -42.810  -6.183 -33.091  0.00  0.00    +0.000 A 
ATOM     18  C   UNL     1     -43.339  -7.041 -32.122  0.00  0.00    +0.000 A 
ENDBRANCH  11  13
ENDBRANCH   2   5
BRANCH   1  19
ATOM     19  C   UNL     1     -47.553  -5.586 -30.948  0.00  0.00    +0.000 C 
BRANCH  19  21
ATOM     20  C   UNL     1     -46.435  -4.758 -33.057  0.00  0.00    +0.000 A 
ATOM     21  C   UNL     1     -46.743  -4.570 -31.690  0.00  0.00    +0.000 A 
ATOM     22  C   UNL     1     -46.295  -3.421 -31.016  0.00  0.00    +0.000 A 
ATOM     23  C   UNL     1     -45.535  -2.486 -31.716  0.00  0.00    +0.000 A 
ATOM     24  C   UNL     1     -44.976  -1.229 -31.179  0.00  0.00    +0.000 C 
ATOM     25  C   UNL     1     -44.240  -0.614 -32.379  0.00  0.00    +0.000 C 
ATOM     26  C   UNL     1     -44.413  -1.559 -33.577  0.00  0.00    +0.000 C 
ATOM     27  C   UNL     1     -45.225  -2.667 -33.036  0.00  0.00    +0.000 A 
ATOM     28  C   UNL     1     -45.662  -3.792 -33.733  0.00  0.00    +0.000 A 
BRANCH  20  30
ATOM     29  C   UNL     1     -46.171  -6.540 -34.757  0.00  0.00    +0.000 C 
ATOM     30  O   UNL     1     -46.900  -5.901 -33.719  0.00  0.00    +0.000 OA
ENDBRANCH  20  30
ENDBRANCH  19  21
ENDBRANCH   1  19
TORSDOF 5
ENDMDL
