MODEL 1
REMARK VINA RESULT:      -7.1      0.000      0.000
REMARK  Name = ZINC000032899841 ZINC32899841 PubChem-40135872
REMARK  6 active torsions:
REMARK  status: ('A' for Active; 'I' for Inactive)
REMARK    1  A    between atoms: C_1  and  C_19
REMARK    2  A    between atoms: C_12  and  C_15
REMARK    3  A    between atoms: C_19  and  O_21
REMARK    4  A    between atoms: O_21  and  C_22
REMARK    5  A    between atoms: C_22  and  C_25
REMARK    6  A    between atoms: C_25  and  N_26
REMARK                            x       y       z     vdW  Elec       q    Type
REMARK                         _______ _______ _______ _____ _____    ______ ____
ROOT
ATOM      1  C   UNL     1     -43.788  -5.821 -34.085  0.00  0.00    +0.000 C 
ATOM      2  O   UNL     1     -42.626  -5.927 -34.557  0.00  0.00    +0.000 OA
ATOM      3  N   UNL     1     -44.250  -4.555 -33.554  0.00  0.00    +0.000 N 
ATOM      4  C   UNL     1     -45.676  -4.401 -33.225  0.00  0.00    +0.000 C 
ATOM      5  C   UNL     1     -46.153  -3.002 -33.457  0.00  0.00    +0.000 C 
ATOM      6  O   UNL     1     -47.370  -2.785 -33.681  0.00  0.00    +0.000 OA
ATOM      7  N   UNL     1     -45.242  -1.909 -33.337  0.00  0.00    +0.000 N 
ATOM      8  C   UNL     1     -43.847  -2.148 -33.169  0.00  0.00    +0.000 A 
ATOM      9  C   UNL     1     -43.341  -3.458 -33.278  0.00  0.00    +0.000 A 
ATOM     10  C   UNL     1     -41.963  -3.667 -33.116  0.00  0.00    +0.000 A 
ATOM     11  C   UNL     1     -41.106  -2.594 -32.862  0.00  0.00    +0.000 A 
ATOM     12  C   UNL     1     -41.613  -1.292 -32.751  0.00  0.00    +0.000 A 
ATOM     13  C   UNL     1     -42.986  -1.076 -32.923  0.00  0.00    +0.000 A 
ATOM     14  H   UNL     1     -45.580  -0.985 -33.369  0.00  0.00    +0.000 HD
ENDROOT
BRANCH  12  15
ATOM     15  C   UNL     1     -40.690  -0.128 -32.536  0.00  0.00    +0.000 C 
ATOM     16  F   UNL     1     -40.659   0.652 -33.678  0.00  0.00    +0.000 F 
ATOM     17  F   UNL     1     -41.134   0.642 -31.474  0.00  0.00    +0.000 F 
ATOM     18  F   UNL     1     -39.408  -0.567 -32.255  0.00  0.00    +0.000 F 
ENDBRANCH  12  15
BRANCH   1  19
ATOM     19  C   UNL     1     -44.667  -7.034 -34.141  0.00  0.00    +0.000 C 
ATOM     20  C   UNL     1     -44.509  -7.769 -35.460  0.00  0.00    +0.000 C 
BRANCH  19  21
ATOM     21  O   UNL     1     -44.393  -7.897 -33.044  0.00  0.00    +0.000 OA
BRANCH  21  22
ATOM     22  C   UNL     1     -44.659  -7.529 -31.722  0.00  0.00    +0.000 C 
ATOM     23  O   UNL     1     -43.719  -7.249 -30.929  0.00  0.00    +0.000 OA
BRANCH  22  25
ATOM     24  C   UNL     1     -46.872  -8.668 -31.770  0.00  0.00    +0.000 C 
ATOM     25  C   UNL     1     -46.066  -7.502 -31.224  0.00  0.00    +0.000 C 
BRANCH  25  26
ATOM     26  N   UNL     1     -46.107  -7.464 -29.762  0.00  0.00    +0.000 N 
ATOM     27  C   UNL     1     -46.452  -6.420 -28.990  0.00  0.00    +0.000 A 
ATOM     28  C   UNL     1     -46.868  -5.146 -29.372  0.00  0.00    +0.000 A 
ATOM     29  C   UNL     1     -47.148  -4.226 -28.343  0.00  0.00    +0.000 A 
ATOM     30  C   UNL     1     -47.006  -4.598 -26.987  0.00  0.00    +0.000 A 
ATOM     31  C   UNL     1     -46.579  -5.891 -26.636  0.00  0.00    +0.000 A 
ATOM     32  C   UNL     1     -46.309  -6.775 -27.676  0.00  0.00    +0.000 A 
ATOM     33  O   UNL     1     -45.886  -8.015 -27.606  0.00  0.00    +0.000 OA
ATOM     34  C   UNL     1     -45.762  -8.420 -28.860  0.00  0.00    +0.000 A 
ATOM     35  O   UNL     1     -45.358  -9.571 -29.175  0.00  0.00    +0.000 OA
ENDBRANCH  25  26
ENDBRANCH  22  25
ENDBRANCH  21  22
ENDBRANCH  19  21
ENDBRANCH   1  19
TORSDOF 6
ENDMDL
MODEL 2
REMARK VINA RESULT:      -7.1     12.409     16.039
REMARK  Name = ZINC000032899841 ZINC32899841 PubChem-40135872
REMARK  6 active torsions:
REMARK  status: ('A' for Active; 'I' for Inactive)
REMARK    1  A    between atoms: C_1  and  C_19
REMARK    2  A    between atoms: C_12  and  C_15
REMARK    3  A    between atoms: C_19  and  O_21
REMARK    4  A    between atoms: O_21  and  C_22
REMARK    5  A    between atoms: C_22  and  C_25
REMARK    6  A    between atoms: C_25  and  N_26
REMARK                            x       y       z     vdW  Elec       q    Type
REMARK                         _______ _______ _______ _____ _____    ______ ____
ROOT
ATOM      1  C   UNL     1     -43.334 -19.180 -26.122  0.00  0.00    +0.000 C 
ATOM      2  O   UNL     1     -44.539 -19.496 -26.309  0.00  0.00    +0.000 OA
ATOM      3  N   UNL     1     -42.821 -19.016 -24.777  0.00  0.00    +0.000 N 
ATOM      4  C   UNL     1     -41.369 -18.876 -24.584  0.00  0.00    +0.000 C 
ATOM      5  C   UNL     1     -40.919 -19.482 -23.293  0.00  0.00    +0.000 C 
ATOM      6  O   UNL     1     -39.730 -19.871 -23.164  0.00  0.00    +0.000 OA
ATOM      7  N   UNL     1     -41.813 -19.537 -22.181  0.00  0.00    +0.000 N 
ATOM      8  C   UNL     1     -43.183 -19.179 -22.340  0.00  0.00    +0.000 A 
ATOM      9  C   UNL     1     -43.697 -18.921 -23.625  0.00  0.00    +0.000 A 
ATOM     10  C   UNL     1     -45.052 -18.577 -23.756  0.00  0.00    +0.000 A 
ATOM     11  C   UNL     1     -45.878 -18.503 -22.633  0.00  0.00    +0.000 A 
ATOM     12  C   UNL     1     -45.363 -18.758 -21.355  0.00  0.00    +0.000 A 
ATOM     13  C   UNL     1     -44.015 -19.112 -21.219  0.00  0.00    +0.000 A 
ATOM     14  H   UNL     1     -41.480 -19.823 -21.299  0.00  0.00    +0.000 HD
ENDROOT
BRANCH  12  15
ATOM     15  C   UNL     1     -46.260 -18.736 -20.151  0.00  0.00    +0.000 C 
ATOM     16  F   UNL     1     -47.424 -19.427 -20.433  0.00  0.00    +0.000 F 
ATOM     17  F   UNL     1     -45.627 -19.335 -19.075  0.00  0.00    +0.000 F 
ATOM     18  F   UNL     1     -46.579 -17.435 -19.804  0.00  0.00    +0.000 F 
ENDBRANCH  12  15
BRANCH   1  19
ATOM     19  C   UNL     1     -42.465 -19.032 -27.334  0.00  0.00    +0.000 C 
ATOM     20  C   UNL     1     -42.669 -20.184 -28.303  0.00  0.00    +0.000 C 
BRANCH  19  21
ATOM     21  O   UNL     1     -42.711 -17.784 -27.972  0.00  0.00    +0.000 OA
BRANCH  21  22
ATOM     22  C   UNL     1     -41.743 -16.778 -28.037  0.00  0.00    +0.000 C 
ATOM     23  O   UNL     1     -40.742 -16.894 -28.797  0.00  0.00    +0.000 OA
BRANCH  22  25
ATOM     24  C   UNL     1     -41.088 -14.394 -27.750  0.00  0.00    +0.000 C 
ATOM     25  C   UNL     1     -41.868 -15.565 -27.177  0.00  0.00    +0.000 C 
BRANCH  25  26
ATOM     26  N   UNL     1     -43.272 -15.214 -26.959  0.00  0.00    +0.000 N 
ATOM     27  C   UNL     1     -43.911 -15.132 -25.781  0.00  0.00    +0.000 A 
ATOM     28  C   UNL     1     -43.411 -15.333 -24.495  0.00  0.00    +0.000 A 
ATOM     29  C   UNL     1     -44.317 -15.203 -23.426  0.00  0.00    +0.000 A 
ATOM     30  C   UNL     1     -45.673 -14.884 -23.666  0.00  0.00    +0.000 A 
ATOM     31  C   UNL     1     -46.146 -14.692 -24.976  0.00  0.00    +0.000 A 
ATOM     32  C   UNL     1     -45.226 -14.829 -26.011  0.00  0.00    +0.000 A 
ATOM     33  O   UNL     1     -45.425 -14.717 -27.303  0.00  0.00    +0.000 OA
ATOM     34  C   UNL     1     -44.251 -14.955 -27.865  0.00  0.00    +0.000 A 
ATOM     35  O   UNL     1     -44.071 -14.948 -29.112  0.00  0.00    +0.000 OA
ENDBRANCH  25  26
ENDBRANCH  22  25
ENDBRANCH  21  22
ENDBRANCH  19  21
ENDBRANCH   1  19
TORSDOF 6
ENDMDL
MODEL 3
REMARK VINA RESULT:      -6.9      1.816      3.152
REMARK  Name = ZINC000032899841 ZINC32899841 PubChem-40135872
REMARK  6 active torsions:
REMARK  status: ('A' for Active; 'I' for Inactive)
REMARK    1  A    between atoms: C_1  and  C_19
REMARK    2  A    between atoms: C_12  and  C_15
REMARK    3  A    between atoms: C_19  and  O_21
REMARK    4  A    between atoms: O_21  and  C_22
REMARK    5  A    between atoms: C_22  and  C_25
REMARK    6  A    between atoms: C_25  and  N_26
REMARK                            x       y       z     vdW  Elec       q    Type
REMARK                         _______ _______ _______ _____ _____    ______ ____
ROOT
ATOM      1  C   UNL     1     -46.130  -3.308 -32.233  0.00  0.00    +0.000 C 
ATOM      2  O   UNL     1     -46.233  -2.397 -31.370  0.00  0.00    +0.000 OA
ATOM      3  N   UNL     1     -44.853  -3.581 -32.860  0.00  0.00    +0.000 N 
ATOM      4  C   UNL     1     -44.713  -4.792 -33.685  0.00  0.00    +0.000 C 
ATOM      5  C   UNL     1     -43.333  -5.362 -33.605  0.00  0.00    +0.000 C 
ATOM      6  O   UNL     1     -43.145  -6.584 -33.838  0.00  0.00    +0.000 OA
ATOM      7  N   UNL     1     -42.220  -4.504 -33.352  0.00  0.00    +0.000 N 
ATOM      8  C   UNL     1     -42.428  -3.139 -33.003  0.00  0.00    +0.000 A 
ATOM      9  C   UNL     1     -43.731  -2.668 -32.753  0.00  0.00    +0.000 A 
ATOM     10  C   UNL     1     -43.910  -1.320 -32.403  0.00  0.00    +0.000 A 
ATOM     11  C   UNL     1     -42.813  -0.463 -32.295  0.00  0.00    +0.000 A 
ATOM     12  C   UNL     1     -41.517  -0.934 -32.548  0.00  0.00    +0.000 A 
ATOM     13  C   UNL     1     -41.331  -2.280 -32.886  0.00  0.00    +0.000 A 
ATOM     14  H   UNL     1     -41.303  -4.859 -33.420  0.00  0.00    +0.000 HD
ENDROOT
BRANCH  12  15
ATOM     15  C   UNL     1     -40.329  -0.031 -32.377  0.00  0.00    +0.000 C 
ATOM     16  F   UNL     1     -40.452   0.670 -31.191  0.00  0.00    +0.000 F 
ATOM     17  F   UNL     1     -39.164  -0.778 -32.343  0.00  0.00    +0.000 F 
ATOM     18  F   UNL     1     -40.244   0.868 -33.426  0.00  0.00    +0.000 F 
ENDBRANCH  12  15
BRANCH   1  19
ATOM     19  C   UNL     1     -47.360  -4.110 -32.537  0.00  0.00    +0.000 C 
ATOM     20  C   UNL     1     -47.712  -4.041 -34.013  0.00  0.00    +0.000 C 
BRANCH  19  21
ATOM     21  O   UNL     1     -47.189  -5.458 -32.119  0.00  0.00    +0.000 OA
BRANCH  21  22
ATOM     22  C   UNL     1     -47.412  -5.863 -30.800  0.00  0.00    +0.000 C 
ATOM     23  O   UNL     1     -47.749  -5.028 -29.917  0.00  0.00    +0.000 OA
BRANCH  22  25
ATOM     24  C   UNL     1     -46.791  -8.136 -31.605  0.00  0.00    +0.000 C 
ATOM     25  C   UNL     1     -47.217  -7.292 -30.415  0.00  0.00    +0.000 C 
BRANCH  25  26
ATOM     26  N   UNL     1     -46.267  -7.415 -29.309  0.00  0.00    +0.000 N 
ATOM     27  C   UNL     1     -45.027  -6.903 -29.248  0.00  0.00    +0.000 A 
ATOM     28  C   UNL     1     -44.351  -6.125 -30.187  0.00  0.00    +0.000 A 
ATOM     29  C   UNL     1     -43.035  -5.737 -29.873  0.00  0.00    +0.000 A 
ATOM     30  C   UNL     1     -42.440  -6.131 -28.652  0.00  0.00    +0.000 A 
ATOM     31  C   UNL     1     -43.149  -6.920 -27.728  0.00  0.00    +0.000 A 
ATOM     32  C   UNL     1     -44.446  -7.288 -28.069  0.00  0.00    +0.000 A 
ATOM     33  O   UNL     1     -45.293  -8.026 -27.391  0.00  0.00    +0.000 OA
ATOM     34  C   UNL     1     -46.380  -8.102 -28.142  0.00  0.00    +0.000 A 
ATOM     35  O   UNL     1     -47.404  -8.754 -27.806  0.00  0.00    +0.000 OA
ENDBRANCH  25  26
ENDBRANCH  22  25
ENDBRANCH  21  22
ENDBRANCH  19  21
ENDBRANCH   1  19
TORSDOF 6
ENDMDL
