MODEL 1
REMARK VINA RESULT:      -7.5      0.000      0.000
REMARK  Name = ZINC000096114995 ZINC96114995 PubChem-97424600
REMARK  4 active torsions:
REMARK  status: ('A' for Active; 'I' for Inactive)
REMARK    1  A    between atoms: C_1  and  C_23
REMARK    2  A    between atoms: C_13  and  C_28
REMARK    3  A    between atoms: C_15  and  O_18
REMARK    4  A    between atoms: C_16  and  O_17
REMARK                            x       y       z     vdW  Elec       q    Type
REMARK                         _______ _______ _______ _____ _____    ______ ____
ROOT
ATOM      1  C   UNL     1     -46.700  -9.055 -28.126  0.00  0.00    +0.000 C 
ATOM      2  C   UNL     1     -46.150 -10.474 -28.299  0.00  0.00    +0.000 C 
ATOM      3  C   UNL     1     -46.676 -11.119 -29.532  0.00  0.00    +0.000 C 
ATOM      4  O   UNL     1     -46.931 -12.350 -29.541  0.00  0.00    +0.000 OA
ATOM      5  O   UNL     1     -46.847 -10.361 -30.686  0.00  0.00    +0.000 OA
ATOM      6  C   UNL     1     -46.827  -8.963 -30.660  0.00  0.00    +0.000 A 
ATOM      7  C   UNL     1     -46.775  -8.262 -29.433  0.00  0.00    +0.000 A 
ATOM      8  C   UNL     1     -46.922  -6.853 -29.448  0.00  0.00    +0.000 A 
ATOM      9  C   UNL     1     -46.991  -6.153 -30.681  0.00  0.00    +0.000 A 
ATOM     10  C   UNL     1     -47.105  -4.748 -30.636  0.00  0.00    +0.000 A 
ATOM     11  O   UNL     1     -47.160  -4.054 -31.687  0.00  0.00    +0.000 OA
ATOM     12  C   UNL     1     -47.164  -4.103 -29.407  0.00  0.00    +0.000 A 
ATOM     13  C   UNL     1     -47.111  -4.854 -28.231  0.00  0.00    +0.000 A 
ATOM     14  O   UNL     1     -46.997  -6.178 -28.301  0.00  0.00    +0.000 OA
ATOM     15  C   UNL     1     -46.960  -6.876 -31.892  0.00  0.00    +0.000 A 
ATOM     16  C   UNL     1     -46.895  -8.271 -31.871  0.00  0.00    +0.000 A 
ENDROOT
BRANCH   1  19
ATOM     17  C   UNL     1     -47.432  -8.730 -25.011  0.00  0.00    +0.000 C 
ATOM     18  C   UNL     1     -46.213  -8.227 -25.712  0.00  0.00    +0.000 A 
ATOM     19  C   UNL     1     -45.896  -8.389 -27.046  0.00  0.00    +0.000 A 
ATOM     20  C   UNL     1     -44.700  -7.714 -27.231  0.00  0.00    +0.000 A 
ATOM     21  N   UNL     1     -44.321  -7.195 -26.043  0.00  0.00    +0.000 NA
ATOM     22  N   UNL     1     -45.234  -7.510 -25.138  0.00  0.00    +0.000 N 
ATOM     23  C   UNL     1     -45.158  -7.110 -23.744  0.00  0.00    +0.000 C 
ENDBRANCH   1  19
BRANCH  13  24
ATOM     24  C   UNL     1     -47.179  -4.194 -26.912  0.00  0.00    +0.000 A 
ATOM     25  C   UNL     1     -47.176  -4.944 -25.724  0.00  0.00    +0.000 A 
ATOM     26  C   UNL     1     -47.244  -4.305 -24.482  0.00  0.00    +0.000 A 
ATOM     27  C   UNL     1     -47.315  -2.912 -24.416  0.00  0.00    +0.000 A 
ATOM     28  C   UNL     1     -47.318  -2.157 -25.592  0.00  0.00    +0.000 A 
ATOM     29  C   UNL     1     -47.250  -2.796 -26.833  0.00  0.00    +0.000 A 
ENDBRANCH  13  24
BRANCH  16  30
ATOM     30  O   UNL     1     -46.908  -8.978 -33.069  0.00  0.00    +0.000 OA
ATOM     31  H   UNL     1     -47.388  -8.648 -33.803  0.00  0.00    +0.000 HD
ENDBRANCH  16  30
BRANCH  15  32
ATOM     32  O   UNL     1     -47.012  -6.227 -33.122  0.00  0.00    +0.000 OA
ATOM     33  H   UNL     1     -47.817  -6.193 -33.600  0.00  0.00    +0.000 HD
ENDBRANCH  15  32
TORSDOF 4
ENDMDL
MODEL 2
REMARK VINA RESULT:      -7.2      9.590     13.191
REMARK  Name = ZINC000096114995 ZINC96114995 PubChem-97424600
REMARK  4 active torsions:
REMARK  status: ('A' for Active; 'I' for Inactive)
REMARK    1  A    between atoms: C_1  and  C_23
REMARK    2  A    between atoms: C_13  and  C_28
REMARK    3  A    between atoms: C_15  and  O_18
REMARK    4  A    between atoms: C_16  and  O_17
REMARK                            x       y       z     vdW  Elec       q    Type
REMARK                         _______ _______ _______ _____ _____    ______ ____
ROOT
ATOM      1  C   UNL     1     -42.809 -19.325 -23.333  0.00  0.00    +0.000 C 
ATOM      2  C   UNL     1     -42.554 -20.726 -22.770  0.00  0.00    +0.000 C 
ATOM      3  C   UNL     1     -42.407 -20.703 -21.290  0.00  0.00    +0.000 C 
ATOM      4  O   UNL     1     -41.591 -21.475 -20.724  0.00  0.00    +0.000 OA
ATOM      5  O   UNL     1     -43.204 -19.851 -20.532  0.00  0.00    +0.000 OA
ATOM      6  C   UNL     1     -43.928 -18.806 -21.114  0.00  0.00    +0.000 A 
ATOM      7  C   UNL     1     -43.764 -18.485 -22.482  0.00  0.00    +0.000 A 
ATOM      8  C   UNL     1     -44.393 -17.320 -22.986  0.00  0.00    +0.000 A 
ATOM      9  C   UNL     1     -45.270 -16.565 -22.164  0.00  0.00    +0.000 A 
ATOM     10  C   UNL     1     -45.893 -15.433 -22.729  0.00  0.00    +0.000 A 
ATOM     11  O   UNL     1     -46.693 -14.719 -22.068  0.00  0.00    +0.000 OA
ATOM     12  C   UNL     1     -45.618 -15.084 -24.045  0.00  0.00    +0.000 A 
ATOM     13  C   UNL     1     -44.729 -15.859 -24.792  0.00  0.00    +0.000 A 
ATOM     14  O   UNL     1     -44.161 -16.927 -24.238  0.00  0.00    +0.000 OA
ATOM     15  C   UNL     1     -45.475 -16.959 -20.825  0.00  0.00    +0.000 A 
ATOM     16  C   UNL     1     -44.792 -18.062 -20.308  0.00  0.00    +0.000 A 
ENDROOT
BRANCH   1  19
ATOM     17  C   UNL     1     -41.021 -19.054 -25.992  0.00  0.00    +0.000 C 
ATOM     18  C   UNL     1     -42.482 -19.350 -25.911  0.00  0.00    +0.000 A 
ATOM     19  C   UNL     1     -43.239 -19.486 -24.763  0.00  0.00    +0.000 A 
ATOM     20  C   UNL     1     -44.536 -19.711 -25.196  0.00  0.00    +0.000 A 
ATOM     21  N   UNL     1     -44.533 -19.728 -26.546  0.00  0.00    +0.000 NA
ATOM     22  N   UNL     1     -43.297 -19.513 -26.965  0.00  0.00    +0.000 N 
ATOM     23  C   UNL     1     -42.919 -19.456 -28.367  0.00  0.00    +0.000 C 
ENDBRANCH   1  19
BRANCH  13  24
ATOM     24  C   UNL     1     -44.415 -15.506 -26.192  0.00  0.00    +0.000 A 
ATOM     25  C   UNL     1     -45.278 -14.696 -26.948  0.00  0.00    +0.000 A 
ATOM     26  C   UNL     1     -44.969 -14.374 -28.272  0.00  0.00    +0.000 A 
ATOM     27  C   UNL     1     -43.794 -14.857 -28.853  0.00  0.00    +0.000 A 
ATOM     28  C   UNL     1     -42.928 -15.663 -28.110  0.00  0.00    +0.000 A 
ATOM     29  C   UNL     1     -43.238 -15.985 -26.785  0.00  0.00    +0.000 A 
ENDBRANCH  13  24
BRANCH  16  30
ATOM     30  O   UNL     1     -44.968 -18.417 -18.975  0.00  0.00    +0.000 OA
ATOM     31  H   UNL     1     -45.831 -18.465 -18.612  0.00  0.00    +0.000 HD
ENDBRANCH  16  30
BRANCH  15  32
ATOM     32  O   UNL     1     -46.337 -16.254 -19.989  0.00  0.00    +0.000 OA
ATOM     33  H   UNL     1     -47.219 -16.548 -19.872  0.00  0.00    +0.000 HD
ENDBRANCH  15  32
TORSDOF 4
ENDMDL
MODEL 3
REMARK VINA RESULT:      -7.1      5.704      9.301
REMARK  Name = ZINC000096114995 ZINC96114995 PubChem-97424600
REMARK  4 active torsions:
REMARK  status: ('A' for Active; 'I' for Inactive)
REMARK    1  A    between atoms: C_1  and  C_23
REMARK    2  A    between atoms: C_13  and  C_28
REMARK    3  A    between atoms: C_15  and  O_18
REMARK    4  A    between atoms: C_16  and  O_17
REMARK                            x       y       z     vdW  Elec       q    Type
REMARK                         _______ _______ _______ _____ _____    ______ ____
ROOT
ATOM      1  C   UNL     1     -42.041  -3.277 -33.716  0.00  0.00    +0.000 C 
ATOM      2  C   UNL     1     -40.988  -2.354 -33.097  0.00  0.00    +0.000 C 
ATOM      3  C   UNL     1     -41.583  -1.064 -32.652  0.00  0.00    +0.000 C 
ATOM      4  O   UNL     1     -40.929   0.004 -32.761  0.00  0.00    +0.000 OA
ATOM      5  O   UNL     1     -42.850  -1.053 -32.079  0.00  0.00    +0.000 OA
ATOM      6  C   UNL     1     -43.711  -2.151 -32.170  0.00  0.00    +0.000 A 
ATOM      7  C   UNL     1     -43.380  -3.267 -32.973  0.00  0.00    +0.000 A 
ATOM      8  C   UNL     1     -44.352  -4.280 -33.164  0.00  0.00    +0.000 A 
ATOM      9  C   UNL     1     -45.583  -4.234 -32.459  0.00  0.00    +0.000 A 
ATOM     10  C   UNL     1     -46.499  -5.286 -32.663  0.00  0.00    +0.000 A 
ATOM     11  O   UNL     1     -47.608  -5.323 -32.065  0.00  0.00    +0.000 OA
ATOM     12  C   UNL     1     -46.185  -6.309 -33.548  0.00  0.00    +0.000 A 
ATOM     13  C   UNL     1     -44.963  -6.282 -34.225  0.00  0.00    +0.000 A 
ATOM     14  O   UNL     1     -44.112  -5.282 -34.009  0.00  0.00    +0.000 OA
ATOM     15  C   UNL     1     -45.851  -3.146 -31.601  0.00  0.00    +0.000 A 
ATOM     16  C   UNL     1     -44.924  -2.109 -31.477  0.00  0.00    +0.000 A 
ENDROOT
BRANCH   1  19
ATOM     17  C   UNL     1     -41.590  -5.001 -36.392  0.00  0.00    +0.000 C 
ATOM     18  C   UNL     1     -41.245  -5.394 -34.994  0.00  0.00    +0.000 A 
ATOM     19  C   UNL     1     -41.422  -4.638 -33.852  0.00  0.00    +0.000 A 
ATOM     20  C   UNL     1     -40.997  -5.440 -32.804  0.00  0.00    +0.000 A 
ATOM     21  N   UNL     1     -40.566  -6.612 -33.318  0.00  0.00    +0.000 NA
ATOM     22  N   UNL     1     -40.716  -6.573 -34.632  0.00  0.00    +0.000 N 
ATOM     23  C   UNL     1     -40.362  -7.671 -35.516  0.00  0.00    +0.000 C 
ENDBRANCH   1  19
BRANCH  13  24
ATOM     24  C   UNL     1     -44.606  -7.354 -35.177  0.00  0.00    +0.000 A 
ATOM     25  C   UNL     1     -43.960  -8.524 -34.744  0.00  0.00    +0.000 A 
ATOM     26  C   UNL     1     -43.625  -9.528 -35.657  0.00  0.00    +0.000 A 
ATOM     27  C   UNL     1     -43.933  -9.372 -37.011  0.00  0.00    +0.000 A 
ATOM     28  C   UNL     1     -44.576  -8.213 -37.452  0.00  0.00    +0.000 A 
ATOM     29  C   UNL     1     -44.911  -7.209 -36.538  0.00  0.00    +0.000 A 
ENDBRANCH  13  24
BRANCH  16  30
ATOM     30  O   UNL     1     -45.214  -1.020 -30.663  0.00  0.00    +0.000 OA
ATOM     31  H   UNL     1     -45.623  -0.259 -31.027  0.00  0.00    +0.000 HD
ENDBRANCH  16  30
BRANCH  15  32
ATOM     32  O   UNL     1     -47.040  -3.069 -30.881  0.00  0.00    +0.000 OA
ATOM     33  H   UNL     1     -47.105  -2.493 -30.146  0.00  0.00    +0.000 HD
ENDBRANCH  15  32
TORSDOF 4
ENDMDL
