MODEL 1
REMARK VINA RESULT:      -8.2      0.000      0.000
REMARK  Name = ZINC000009405320 ZINC09405320 ChemDiv-E196-0337 MCULE-8548667416 MolPort-007-724-099 PubChem-22518545
REMARK  6 active torsions:
REMARK  status: ('A' for Active; 'I' for Inactive)
REMARK    1  A    between atoms: C_1  and  S_12
REMARK    2  A    between atoms: N_11  and  C_26
REMARK    3  A    between atoms: S_12  and  C_13
REMARK    4  A    between atoms: C_13  and  C_15
REMARK    5  A    between atoms: N_14  and  C_22
REMARK    6  A    between atoms: C_26  and  C_27
REMARK                            x       y       z     vdW  Elec       q    Type
REMARK                         _______ _______ _______ _____ _____    ______ ____
ROOT
ATOM      1  C   UNL     1     -46.776  -6.828 -31.869  0.00  0.00    +0.000 A 
ATOM      2  N   UNL     1     -46.539  -8.121 -31.523  0.00  0.00    +0.000 NA
ATOM      3  C   UNL     1     -46.165  -9.037 -32.448  0.00  0.00    +0.000 A 
ATOM      4  N   UNL     1     -45.928 -10.325 -32.087  0.00  0.00    +0.000 NA
ATOM      5  C   UNL     1     -45.548 -11.251 -33.009  0.00  0.00    +0.000 A 
ATOM      6  C   UNL     1     -45.401 -10.872 -34.347  0.00  0.00    +0.000 A 
ATOM      7  N   UNL     1     -45.638  -9.583 -34.710  0.00  0.00    +0.000 NA
ATOM      8  C   UNL     1     -46.017  -8.656 -33.788  0.00  0.00    +0.000 A 
ATOM      9  C   UNL     1     -46.269  -7.327 -34.138  0.00  0.00    +0.000 A 
ATOM     10  O   UNL     1     -46.150  -6.965 -35.342  0.00  0.00    +0.000 OA
ATOM     11  N   UNL     1     -46.649  -6.428 -33.177  0.00  0.00    +0.000 N 
ENDROOT
BRANCH   1  12
ATOM     12  S   UNL     1     -47.247  -5.678 -30.570  0.00  0.00    +0.000 S 
BRANCH  12  13
ATOM     13  C   UNL     1     -46.448  -6.693 -29.292  0.00  0.00    +0.000 C 
BRANCH  13  15
ATOM     14  N   UNL     1     -47.327  -5.117 -27.538  0.00  0.00    +0.000 N 
ATOM     15  C   UNL     1     -46.239  -5.887 -28.061  0.00  0.00    +0.000 C 
ATOM     16  O   UNL     1     -45.117  -5.909 -27.488  0.00  0.00    +0.000 OA
ATOM     17  H   UNL     1     -48.179  -5.169 -28.028  0.00  0.00    +0.000 HD
BRANCH  14  22
ATOM     18  C   UNL     1     -47.247  -1.639 -22.981  0.00  0.00    +0.000 C 
ATOM     19  C   UNL     1     -47.267  -2.576 -24.141  0.00  0.00    +0.000 A 
ATOM     20  C   UNL     1     -47.302  -2.045 -25.434  0.00  0.00    +0.000 A 
ATOM     21  C   UNL     1     -47.321  -2.893 -26.544  0.00  0.00    +0.000 A 
ATOM     22  C   UNL     1     -47.307  -4.281 -26.374  0.00  0.00    +0.000 A 
ATOM     23  C   UNL     1     -47.272  -4.813 -25.077  0.00  0.00    +0.000 A 
ATOM     24  C   UNL     1     -47.251  -3.971 -23.961  0.00  0.00    +0.000 A 
ATOM     25  C   UNL     1     -47.215  -4.583 -22.602  0.00  0.00    +0.000 C 
ENDBRANCH  14  22
ENDBRANCH  13  15
ENDBRANCH  12  13
ENDBRANCH   1  12
BRANCH  11  26
ATOM     26  C   UNL     1     -46.945  -5.047 -33.570  0.00  0.00    +0.000 C 
BRANCH  26  27
ATOM     27  C   UNL     1     -45.753  -4.152 -33.423  0.00  0.00    +0.000 A 
ATOM     28  C   UNL     1     -45.949  -2.753 -33.417  0.00  0.00    +0.000 A 
ATOM     29  C   UNL     1     -44.855  -1.875 -33.317  0.00  0.00    +0.000 A 
ATOM     30  C   UNL     1     -43.586  -2.439 -33.227  0.00  0.00    +0.000 A 
ATOM     31  O   UNL     1     -42.368  -1.799 -33.115  0.00  0.00    +0.000 OA
ATOM     32  C   UNL     1     -41.342  -2.800 -33.061  0.00  0.00    +0.000 C 
ATOM     33  O   UNL     1     -42.039  -4.051 -33.149  0.00  0.00    +0.000 OA
ATOM     34  C   UNL     1     -43.390  -3.782 -33.246  0.00  0.00    +0.000 A 
ATOM     35  C   UNL     1     -44.447  -4.682 -33.353  0.00  0.00    +0.000 A 
ENDBRANCH  26  27
ENDBRANCH  11  26
TORSDOF 6
ENDMDL
MODEL 2
REMARK VINA RESULT:      -7.5      2.252      4.984
REMARK  Name = ZINC000009405320 ZINC09405320 ChemDiv-E196-0337 MCULE-8548667416 MolPort-007-724-099 PubChem-22518545
REMARK  6 active torsions:
REMARK  status: ('A' for Active; 'I' for Inactive)
REMARK    1  A    between atoms: C_1  and  S_12
REMARK    2  A    between atoms: N_11  and  C_26
REMARK    3  A    between atoms: S_12  and  C_13
REMARK    4  A    between atoms: C_13  and  C_15
REMARK    5  A    between atoms: N_14  and  C_22
REMARK    6  A    between atoms: C_26  and  C_27
REMARK                            x       y       z     vdW  Elec       q    Type
REMARK                         _______ _______ _______ _____ _____    ______ ____
ROOT
ATOM      1  C   UNL     1     -46.981  -6.835 -30.630  0.00  0.00    +0.000 A 
ATOM      2  N   UNL     1     -46.742  -5.541 -30.285  0.00  0.00    +0.000 NA
ATOM      3  C   UNL     1     -46.438  -4.611 -31.222  0.00  0.00    +0.000 A 
ATOM      4  N   UNL     1     -46.205  -3.321 -30.865  0.00  0.00    +0.000 NA
ATOM      5  C   UNL     1     -45.902  -2.380 -31.799  0.00  0.00    +0.000 A 
ATOM      6  C   UNL     1     -45.827  -2.746 -33.147  0.00  0.00    +0.000 A 
ATOM      7  N   UNL     1     -46.059  -4.036 -33.506  0.00  0.00    +0.000 NA
ATOM      8  C   UNL     1     -46.364  -4.978 -32.572  0.00  0.00    +0.000 A 
ATOM      9  C   UNL     1     -46.602  -6.311 -32.919  0.00  0.00    +0.000 A 
ATOM     10  O   UNL     1     -46.531  -6.664 -34.129  0.00  0.00    +0.000 OA
ATOM     11  N   UNL     1     -46.905  -7.226 -31.945  0.00  0.00    +0.000 N 
ENDROOT
BRANCH   1  12
ATOM     12  S   UNL     1     -47.400  -7.994 -29.322  0.00  0.00    +0.000 S 
BRANCH  12  13
ATOM     13  C   UNL     1     -45.718  -7.926 -28.635  0.00  0.00    +0.000 C 
BRANCH  13  15
ATOM     14  N   UNL     1     -46.852  -6.312 -27.073  0.00  0.00    +0.000 N 
ATOM     15  C   UNL     1     -45.640  -6.879 -27.585  0.00  0.00    +0.000 C 
ATOM     16  O   UNL     1     -44.514  -6.520 -27.148  0.00  0.00    +0.000 OA
ATOM     17  H   UNL     1     -47.693  -6.660 -27.449  0.00  0.00    +0.000 HD
BRANCH  14  22
ATOM     18  C   UNL     1     -47.304  -2.352 -22.952  0.00  0.00    +0.000 C 
ATOM     19  C   UNL     1     -47.191  -3.352 -24.052  0.00  0.00    +0.000 A 
ATOM     20  C   UNL     1     -47.001  -4.697 -23.721  0.00  0.00    +0.000 A 
ATOM     21  C   UNL     1     -46.892  -5.662 -24.726  0.00  0.00    +0.000 A 
ATOM     22  C   UNL     1     -46.969  -5.293 -26.072  0.00  0.00    +0.000 A 
ATOM     23  C   UNL     1     -47.158  -3.944 -26.404  0.00  0.00    +0.000 A 
ATOM     24  C   UNL     1     -47.270  -2.973 -25.404  0.00  0.00    +0.000 A 
ATOM     25  C   UNL     1     -47.470  -1.550 -25.806  0.00  0.00    +0.000 C 
ENDBRANCH  14  22
ENDBRANCH  13  15
ENDBRANCH  12  13
ENDBRANCH   1  12
BRANCH  11  26
ATOM     26  C   UNL     1     -47.117  -8.626 -32.323  0.00  0.00    +0.000 C 
BRANCH  26  27
ATOM     27  C   UNL     1     -45.828  -9.332 -32.610  0.00  0.00    +0.000 A 
ATOM     28  C   UNL     1     -45.796 -10.298 -33.641  0.00  0.00    +0.000 A 
ATOM     29  C   UNL     1     -44.616 -11.009 -33.921  0.00  0.00    +0.000 A 
ATOM     30  C   UNL     1     -43.496 -10.726 -33.146  0.00  0.00    +0.000 A 
ATOM     31  O   UNL     1     -42.233 -11.279 -33.227  0.00  0.00    +0.000 OA
ATOM     32  C   UNL     1     -41.417 -10.674 -32.214  0.00  0.00    +0.000 C 
ATOM     33  O   UNL     1     -42.282  -9.744 -31.547  0.00  0.00    +0.000 OA
ATOM     34  C   UNL     1     -43.524  -9.810 -32.145  0.00  0.00    +0.000 A 
ATOM     35  C   UNL     1     -44.675  -9.092 -31.832  0.00  0.00    +0.000 A 
ENDBRANCH  26  27
ENDBRANCH  11  26
TORSDOF 6
ENDMDL
MODEL 3
REMARK VINA RESULT:      -7.3      3.415      6.130
REMARK  Name = ZINC000009405320 ZINC09405320 ChemDiv-E196-0337 MCULE-8548667416 MolPort-007-724-099 PubChem-22518545
REMARK  6 active torsions:
REMARK  status: ('A' for Active; 'I' for Inactive)
REMARK    1  A    between atoms: C_1  and  S_12
REMARK    2  A    between atoms: N_11  and  C_26
REMARK    3  A    between atoms: S_12  and  C_13
REMARK    4  A    between atoms: C_13  and  C_15
REMARK    5  A    between atoms: N_14  and  C_22
REMARK    6  A    between atoms: C_26  and  C_27
REMARK                            x       y       z     vdW  Elec       q    Type
REMARK                         _______ _______ _______ _____ _____    ______ ____
ROOT
ATOM      1  C   UNL     1     -46.235  -6.796 -30.695  0.00  0.00    +0.000 A 
ATOM      2  N   UNL     1     -46.103  -7.280 -29.431  0.00  0.00    +0.000 NA
ATOM      3  C   UNL     1     -46.412  -6.520 -28.353  0.00  0.00    +0.000 A 
ATOM      4  N   UNL     1     -46.279  -7.018 -27.096  0.00  0.00    +0.000 NA
ATOM      5  C   UNL     1     -46.590  -6.262 -26.008  0.00  0.00    +0.000 A 
ATOM      6  C   UNL     1     -47.050  -4.954 -26.186  0.00  0.00    +0.000 A 
ATOM      7  N   UNL     1     -47.183  -4.454 -27.443  0.00  0.00    +0.000 NA
ATOM      8  C   UNL     1     -46.874  -5.210 -28.532  0.00  0.00    +0.000 A 
ATOM      9  C   UNL     1     -46.999  -4.715 -29.833  0.00  0.00    +0.000 A 
ATOM     10  O   UNL     1     -47.406  -3.534 -30.015  0.00  0.00    +0.000 OA
ATOM     11  N   UNL     1     -46.676  -5.511 -30.900  0.00  0.00    +0.000 N 
ENDROOT
BRANCH   1  12
ATOM     12  S   UNL     1     -45.823  -7.884 -32.065  0.00  0.00    +0.000 S 
BRANCH  12  13
ATOM     13  C   UNL     1     -47.128  -9.064 -31.605  0.00  0.00    +0.000 C 
BRANCH  13  15
ATOM     14  N   UNL     1     -47.241 -10.269 -29.399  0.00  0.00    +0.000 N 
ATOM     15  C   UNL     1     -46.588 -10.074 -30.659  0.00  0.00    +0.000 C 
ATOM     16  O   UNL     1     -45.581 -10.757 -30.987  0.00  0.00    +0.000 OA
ATOM     17  H   UNL     1     -48.035  -9.714 -29.225  0.00  0.00    +0.000 HD
BRANCH  14  22
ATOM     18  C   UNL     1     -45.751 -14.066 -25.369  0.00  0.00    +0.000 C 
ATOM     19  C   UNL     1     -46.130 -13.047 -26.391  0.00  0.00    +0.000 A 
ATOM     20  C   UNL     1     -46.563 -13.484 -27.647  0.00  0.00    +0.000 A 
ATOM     21  C   UNL     1     -46.927 -12.559 -28.628  0.00  0.00    +0.000 A 
ATOM     22  C   UNL     1     -46.859 -11.187 -28.366  0.00  0.00    +0.000 A 
ATOM     23  C   UNL     1     -46.424 -10.749 -27.107  0.00  0.00    +0.000 A 
ATOM     24  C   UNL     1     -46.061 -11.669 -26.119  0.00  0.00    +0.000 A 
ATOM     25  C   UNL     1     -45.603 -11.156 -24.795  0.00  0.00    +0.000 C 
ENDBRANCH  14  22
ENDBRANCH  13  15
ENDBRANCH  12  13
ENDBRANCH   1  12
BRANCH  11  26
ATOM     26  C   UNL     1     -46.780  -4.963 -32.256  0.00  0.00    +0.000 C 
BRANCH  26  27
ATOM     27  C   UNL     1     -45.623  -4.074 -32.593  0.00  0.00    +0.000 A 
ATOM     28  C   UNL     1     -45.864  -2.894 -33.332  0.00  0.00    +0.000 A 
ATOM     29  C   UNL     1     -44.804  -2.048 -33.700  0.00  0.00    +0.000 A 
ATOM     30  C   UNL     1     -43.520  -2.422 -33.312  0.00  0.00    +0.000 A 
ATOM     31  O   UNL     1     -42.328  -1.766 -33.544  0.00  0.00    +0.000 OA
ATOM     32  C   UNL     1     -41.273  -2.540 -32.958  0.00  0.00    +0.000 C 
ATOM     33  O   UNL     1     -41.926  -3.678 -32.376  0.00  0.00    +0.000 OA
ATOM     34  C   UNL     1     -43.280  -3.561 -32.615  0.00  0.00    +0.000 A 
ATOM     35  C   UNL     1     -44.303  -4.428 -32.240  0.00  0.00    +0.000 A 
ENDBRANCH  26  27
ENDBRANCH  11  26
TORSDOF 6
ENDMDL
