MODEL 1
REMARK VINA RESULT:      -7.7      0.000      0.000
REMARK  Name = ZINC000019126373 ZINC19126373 PubChem-92555022
REMARK  3 active torsions:
REMARK  status: ('A' for Active; 'I' for Inactive)
REMARK    1  A    between atoms: C_1  and  C_14
REMARK    2  A    between atoms: C_7  and  C_19
REMARK    3  A    between atoms: C_23  and  C_25
REMARK                            x       y       z     vdW  Elec       q    Type
REMARK                         _______ _______ _______ _____ _____    ______ ____
ROOT
ATOM      1  C   UNL     1     -46.523  -8.711 -30.098  0.00  0.00    +0.000 C 
ATOM      2  O   UNL     1     -47.475  -9.490 -30.377  0.00  0.00    +0.000 OA
ATOM      3  N   UNL     1     -45.166  -9.175 -30.270  0.00  0.00    +0.000 N 
ATOM      4  C   UNL     1     -44.925 -10.507 -30.814  0.00  0.00    +0.000 C 
ATOM      5  C   UNL     1     -44.464 -10.375 -32.261  0.00  0.00    +0.000 C 
ATOM      6  C   UNL     1     -43.224  -9.480 -32.343  0.00  0.00    +0.000 C 
ATOM      7  C   UNL     1     -43.437  -8.117 -31.664  0.00  0.00    +0.000 C 
ATOM      8  C   UNL     1     -44.019  -8.268 -30.254  0.00  0.00    +0.000 C 
ENDROOT
BRANCH   1  14
ATOM      9  C   UNL     1     -47.394  -2.593 -26.049  0.00  0.00    +0.000 C 
ATOM     10  C   UNL     1     -47.311  -3.703 -27.034  0.00  0.00    +0.000 A 
ATOM     11  C   UNL     1     -46.807  -4.974 -26.751  0.00  0.00    +0.000 A 
ATOM     12  C   UNL     1     -46.942  -5.623 -27.959  0.00  0.00    +0.000 A 
ATOM     13  C   UNL     1     -46.609  -6.927 -28.315  0.00  0.00    +0.000 A 
ATOM     14  C   UNL     1     -46.849  -7.338 -29.643  0.00  0.00    +0.000 A 
ATOM     15  C   UNL     1     -47.430  -6.426 -30.559  0.00  0.00    +0.000 A 
ATOM     16  C   UNL     1     -47.756  -5.115 -30.172  0.00  0.00    +0.000 A 
ATOM     17  C   UNL     1     -47.492  -4.750 -28.856  0.00  0.00    +0.000 A 
ATOM     18  O   UNL     1     -47.711  -3.596 -28.286  0.00  0.00    +0.000 OA
ENDBRANCH   1  14
BRANCH   7  19
ATOM     19  C   UNL     1     -44.215  -7.148 -32.506  0.00  0.00    +0.000 A 
ATOM     20  C   UNL     1     -45.018  -7.580 -33.564  0.00  0.00    +0.000 A 
ATOM     21  C   UNL     1     -45.747  -6.634 -34.288  0.00  0.00    +0.000 A 
ATOM     22  N   UNL     1     -45.655  -5.320 -33.953  0.00  0.00    +0.000 NA
ATOM     23  C   UNL     1     -44.866  -4.906 -32.924  0.00  0.00    +0.000 A 
ATOM     24  N   UNL     1     -44.157  -5.823 -32.210  0.00  0.00    +0.000 NA
ATOM     25  N   UNL     1     -46.596  -7.025 -35.369  0.00  0.00    +0.000 N 
ATOM     26  C   UNL     1     -46.414  -8.264 -36.107  0.00  0.00    +0.000 C 
ATOM     27  H   UNL     1     -47.337  -6.429 -35.625  0.00  0.00    +0.000 HD
BRANCH  23  28
ATOM     28  C   UNL     1     -44.787  -3.475 -32.578  0.00  0.00    +0.000 A 
ATOM     29  C   UNL     1     -44.178  -2.561 -33.448  0.00  0.00    +0.000 A 
ATOM     30  C   UNL     1     -44.110  -1.209 -33.109  0.00  0.00    +0.000 A 
ATOM     31  C   UNL     1     -44.652  -0.782 -31.896  0.00  0.00    +0.000 A 
ATOM     32  N   UNL     1     -45.240  -1.678 -31.060  0.00  0.00    +0.000 NA
ATOM     33  C   UNL     1     -45.317  -3.000 -31.371  0.00  0.00    +0.000 A 
ENDBRANCH  23  28
ENDBRANCH   7  19
TORSDOF 3
ENDMDL
MODEL 2
REMARK VINA RESULT:      -7.6      2.625      5.642
REMARK  Name = ZINC000019126373 ZINC19126373 PubChem-92555022
REMARK  3 active torsions:
REMARK  status: ('A' for Active; 'I' for Inactive)
REMARK    1  A    between atoms: C_1  and  C_14
REMARK    2  A    between atoms: C_7  and  C_19
REMARK    3  A    between atoms: C_23  and  C_25
REMARK                            x       y       z     vdW  Elec       q    Type
REMARK                         _______ _______ _______ _____ _____    ______ ____
ROOT
ATOM      1  C   UNL     1     -43.617  -7.759 -30.502  0.00  0.00    +0.000 C 
ATOM      2  O   UNL     1     -42.910  -7.974 -29.479  0.00  0.00    +0.000 OA
ATOM      3  N   UNL     1     -44.784  -8.580 -30.730  0.00  0.00    +0.000 N 
ATOM      4  C   UNL     1     -45.151  -9.596 -29.750  0.00  0.00    +0.000 C 
ATOM      5  C   UNL     1     -46.352  -9.102 -28.951  0.00  0.00    +0.000 C 
ATOM      6  C   UNL     1     -47.509  -8.757 -29.892  0.00  0.00    +0.000 C 
ATOM      7  C   UNL     1     -47.093  -7.776 -31.000  0.00  0.00    +0.000 C 
ATOM      8  C   UNL     1     -45.811  -8.228 -31.709  0.00  0.00    +0.000 C 
ENDROOT
BRANCH   1  14
ATOM      9  C   UNL     1     -42.361  -1.070 -33.377  0.00  0.00    +0.000 C 
ATOM     10  C   UNL     1     -42.535  -2.497 -32.996  0.00  0.00    +0.000 A 
ATOM     11  C   UNL     1     -43.047  -2.931 -31.773  0.00  0.00    +0.000 A 
ATOM     12  C   UNL     1     -43.009  -4.302 -31.905  0.00  0.00    +0.000 A 
ATOM     13  C   UNL     1     -43.389  -5.297 -31.008  0.00  0.00    +0.000 A 
ATOM     14  C   UNL     1     -43.234  -6.644 -31.400  0.00  0.00    +0.000 A 
ATOM     15  C   UNL     1     -42.718  -6.938 -32.686  0.00  0.00    +0.000 A 
ATOM     16  C   UNL     1     -42.343  -5.913 -33.572  0.00  0.00    +0.000 A 
ATOM     17  C   UNL     1     -42.503  -4.601 -33.139  0.00  0.00    +0.000 A 
ATOM     18  O   UNL     1     -42.221  -3.504 -33.788  0.00  0.00    +0.000 OA
ENDBRANCH   1  14
BRANCH   7  19
ATOM     19  C   UNL     1     -47.020  -6.350 -30.535  0.00  0.00    +0.000 A 
ATOM     20  C   UNL     1     -46.950  -5.289 -31.441  0.00  0.00    +0.000 A 
ATOM     21  C   UNL     1     -46.922  -3.982 -30.949  0.00  0.00    +0.000 A 
ATOM     22  N   UNL     1     -46.959  -3.773 -29.607  0.00  0.00    +0.000 NA
ATOM     23  C   UNL     1     -47.023  -4.812 -28.730  0.00  0.00    +0.000 A 
ATOM     24  N   UNL     1     -47.056  -6.088 -29.202  0.00  0.00    +0.000 NA
ATOM     25  N   UNL     1     -46.866  -2.861 -31.834  0.00  0.00    +0.000 N 
ATOM     26  C   UNL     1     -46.351  -2.951 -33.190  0.00  0.00    +0.000 C 
ATOM     27  H   UNL     1     -47.190  -1.990 -31.510  0.00  0.00    +0.000 HD
BRANCH  23  28
ATOM     28  C   UNL     1     -47.065  -4.557 -27.279  0.00  0.00    +0.000 A 
ATOM     29  C   UNL     1     -47.353  -3.278 -26.784  0.00  0.00    +0.000 A 
ATOM     30  C   UNL     1     -47.390  -3.050 -25.408  0.00  0.00    +0.000 A 
ATOM     31  C   UNL     1     -47.137  -4.109 -24.535  0.00  0.00    +0.000 A 
ATOM     32  N   UNL     1     -46.859  -5.345 -25.025  0.00  0.00    +0.000 NA
ATOM     33  C   UNL     1     -46.818  -5.589 -26.363  0.00  0.00    +0.000 A 
ENDBRANCH  23  28
ENDBRANCH   7  19
TORSDOF 3
ENDMDL
MODEL 3
REMARK VINA RESULT:      -7.3     11.226     15.134
REMARK  Name = ZINC000019126373 ZINC19126373 PubChem-92555022
REMARK  3 active torsions:
REMARK  status: ('A' for Active; 'I' for Inactive)
REMARK    1  A    between atoms: C_1  and  C_14
REMARK    2  A    between atoms: C_7  and  C_19
REMARK    3  A    between atoms: C_23  and  C_25
REMARK                            x       y       z     vdW  Elec       q    Type
REMARK                         _______ _______ _______ _____ _____    ______ ____
ROOT
ATOM      1  C   UNL     1     -44.977 -15.516 -18.420  0.00  0.00    +0.000 C 
ATOM      2  O   UNL     1     -44.041 -15.101 -17.683  0.00  0.00    +0.000 OA
ATOM      3  N   UNL     1     -46.228 -14.795 -18.433  0.00  0.00    +0.000 N 
ATOM      4  C   UNL     1     -46.364 -13.576 -17.643  0.00  0.00    +0.000 C 
ATOM      5  C   UNL     1     -46.310 -12.371 -18.577  0.00  0.00    +0.000 C 
ATOM      6  C   UNL     1     -47.390 -12.488 -19.656  0.00  0.00    +0.000 C 
ATOM      7  C   UNL     1     -47.323 -13.825 -20.412  0.00  0.00    +0.000 C 
ATOM      8  C   UNL     1     -47.253 -15.019 -19.453  0.00  0.00    +0.000 C 
ENDROOT
BRANCH   1  14
ATOM      9  C   UNL     1     -42.273 -20.221 -23.433  0.00  0.00    +0.000 C 
ATOM     10  C   UNL     1     -42.964 -19.441 -22.373  0.00  0.00    +0.000 A 
ATOM     11  C   UNL     1     -42.637 -18.132 -22.016  0.00  0.00    +0.000 A 
ATOM     12  C   UNL     1     -43.542 -17.863 -21.012  0.00  0.00    +0.000 A 
ATOM     13  C   UNL     1     -43.716 -16.710 -20.252  0.00  0.00    +0.000 A 
ATOM     14  C   UNL     1     -44.729 -16.706 -19.269  0.00  0.00    +0.000 A 
ATOM     15  C   UNL     1     -45.539 -17.855 -19.101  0.00  0.00    +0.000 A 
ATOM     16  C   UNL     1     -45.342 -19.006 -19.884  0.00  0.00    +0.000 A 
ATOM     17  C   UNL     1     -44.325 -18.969 -20.832  0.00  0.00    +0.000 A 
ATOM     18  O   UNL     1     -43.967 -19.914 -21.659  0.00  0.00    +0.000 OA
ENDBRANCH   1  14
BRANCH   7  19
ATOM     19  C   UNL     1     -46.247 -13.864 -21.458  0.00  0.00    +0.000 A 
ATOM     20  C   UNL     1     -45.327 -12.822 -21.599  0.00  0.00    +0.000 A 
ATOM     21  C   UNL     1     -44.326 -12.933 -22.567  0.00  0.00    +0.000 A 
ATOM     22  N   UNL     1     -44.271 -14.043 -23.348  0.00  0.00    +0.000 NA
ATOM     23  C   UNL     1     -45.174 -15.052 -23.208  0.00  0.00    +0.000 A 
ATOM     24  N   UNL     1     -46.150 -14.953 -22.264  0.00  0.00    +0.000 NA
ATOM     25  N   UNL     1     -43.351 -11.902 -22.741  0.00  0.00    +0.000 N 
ATOM     26  C   UNL     1     -43.577 -10.524 -22.336  0.00  0.00    +0.000 C 
ATOM     27  H   UNL     1     -42.488 -12.136 -23.154  0.00  0.00    +0.000 HD
BRANCH  23  28
ATOM     28  C   UNL     1     -45.091 -16.247 -24.067  0.00  0.00    +0.000 A 
ATOM     29  C   UNL     1     -45.852 -17.388 -23.783  0.00  0.00    +0.000 A 
ATOM     30  C   UNL     1     -45.764 -18.513 -24.603  0.00  0.00    +0.000 A 
ATOM     31  C   UNL     1     -44.909 -18.487 -25.706  0.00  0.00    +0.000 A 
ATOM     32  N   UNL     1     -44.175 -17.374 -25.973  0.00  0.00    +0.000 NA
ATOM     33  C   UNL     1     -44.247 -16.267 -25.185  0.00  0.00    +0.000 A 
ENDBRANCH  23  28
ENDBRANCH   7  19
TORSDOF 3
ENDMDL
