MODEL 1
REMARK VINA RESULT:      -6.9      0.000      0.000
REMARK  Name = ZINC000031808027
REMARK  1 active torsions:
REMARK  status: ('A' for Active; 'I' for Inactive)
REMARK    1  A    between atoms: C_7  and  C_24
REMARK                            x       y       z     vdW  Elec       q    Type
REMARK                         _______ _______ _______ _____ _____    ______ ____
ROOT
ATOM      1  C   UNL     1     -47.400  -4.483 -26.209  0.00  0.00    +0.000 C 
ATOM      2  C   UNL     1     -46.936  -4.729 -27.603  0.00  0.00    +0.000 A 
ATOM      3  N   UNL     1     -46.786  -3.754 -28.516  0.00  0.00    +0.000 NA
ATOM      4  N   UNL     1     -46.360  -4.316 -29.635  0.00  0.00    +0.000 N 
ATOM      5  C   UNL     1     -46.201  -5.646 -29.448  0.00  0.00    +0.000 A 
ATOM      6  C   UNL     1     -46.585  -5.954 -28.144  0.00  0.00    +0.000 A 
ATOM      7  C   UNL     1     -46.587  -7.250 -27.380  0.00  0.00    +0.000 C 
ATOM      8  S   UNL     1     -46.867  -8.744 -28.381  0.00  0.00    +0.000 S 
ATOM      9  C   UNL     1     -45.232  -8.656 -29.149  0.00  0.00    +0.000 C 
ATOM     10  C   UNL     1     -45.311  -7.894 -30.419  0.00  0.00    +0.000 C 
ATOM     11  O   UNL     1     -45.003  -8.480 -31.487  0.00  0.00    +0.000 OA
ATOM     12  N   UNL     1     -45.684  -6.514 -30.470  0.00  0.00    +0.000 N 
ATOM     13  H   UNL     1     -45.567  -6.089 -31.352  0.00  0.00    +0.000 HD
ATOM     14  C   UNL     1     -46.064  -3.557 -30.816  0.00  0.00    +0.000 A 
ATOM     15  N   UNL     1     -45.494  -2.318 -30.711  0.00  0.00    +0.000 NA
ATOM     16  C   UNL     1     -45.225  -1.556 -31.817  0.00  0.00    +0.000 A 
ATOM     17  N   UNL     1     -45.539  -2.011 -33.066  0.00  0.00    +0.000 NA
ATOM     18  C   UNL     1     -46.117  -3.231 -33.173  0.00  0.00    +0.000 A 
ATOM     19  N   UNL     1     -46.545  -3.816 -34.299  0.00  0.00    +0.000 N 
ATOM     20  C   UNL     1     -47.091  -4.974 -33.838  0.00  0.00    +0.000 A 
ATOM     21  N   UNL     1     -47.022  -5.117 -32.486  0.00  0.00    +0.000 NA
ATOM     22  C   UNL     1     -46.389  -4.001 -32.099  0.00  0.00    +0.000 A 
ATOM     23  H   UNL     1     -46.480  -3.491 -35.226  0.00  0.00    +0.000 HD
ENDROOT
BRANCH   7  24
ATOM     24  C   UNL     1     -45.476  -7.379 -26.371  0.00  0.00    +0.000 A 
ATOM     25  C   UNL     1     -44.164  -7.004 -26.704  0.00  0.00    +0.000 A 
ATOM     26  C   UNL     1     -43.133  -7.121 -25.770  0.00  0.00    +0.000 A 
ATOM     27  C   UNL     1     -43.404  -7.612 -24.492  0.00  0.00    +0.000 A 
ATOM     28  C   UNL     1     -44.704  -7.986 -24.148  0.00  0.00    +0.000 A 
ATOM     29  C   UNL     1     -45.742  -7.872 -25.079  0.00  0.00    +0.000 A 
ATOM     30 CL   UNL     1     -47.362  -8.349 -24.592  0.00  0.00    +0.000 Cl
ENDBRANCH   7  24
TORSDOF 1
ENDMDL
MODEL 2
REMARK VINA RESULT:      -6.6      4.869      7.072
REMARK  Name = ZINC000031808027
REMARK  1 active torsions:
REMARK  status: ('A' for Active; 'I' for Inactive)
REMARK    1  A    between atoms: C_7  and  C_24
REMARK                            x       y       z     vdW  Elec       q    Type
REMARK                         _______ _______ _______ _____ _____    ______ ____
ROOT
ATOM      1  C   UNL     1     -47.136  -3.416 -33.715  0.00  0.00    +0.000 C 
ATOM      2  C   UNL     1     -46.470  -4.747 -33.768  0.00  0.00    +0.000 A 
ATOM      3  N   UNL     1     -46.783  -5.696 -34.667  0.00  0.00    +0.000 NA
ATOM      4  N   UNL     1     -46.005  -6.740 -34.433  0.00  0.00    +0.000 N 
ATOM      5  C   UNL     1     -45.164  -6.465 -33.410  0.00  0.00    +0.000 A 
ATOM      6  C   UNL     1     -45.451  -5.185 -32.939  0.00  0.00    +0.000 A 
ATOM      7  C   UNL     1     -44.823  -4.352 -31.855  0.00  0.00    +0.000 C 
ATOM      8  S   UNL     1     -44.133  -5.290 -30.455  0.00  0.00    +0.000 S 
ATOM      9  C   UNL     1     -42.744  -5.913 -31.429  0.00  0.00    +0.000 C 
ATOM     10  C   UNL     1     -43.093  -7.226 -32.024  0.00  0.00    +0.000 C 
ATOM     11  O   UNL     1     -42.404  -8.228 -31.707  0.00  0.00    +0.000 OA
ATOM     12  N   UNL     1     -44.153  -7.387 -32.972  0.00  0.00    +0.000 N 
ATOM     13  H   UNL     1     -44.196  -8.277 -33.392  0.00  0.00    +0.000 HD
ATOM     14  C   UNL     1     -46.051  -7.931 -35.232  0.00  0.00    +0.000 A 
ATOM     15  N   UNL     1     -46.266  -7.845 -36.580  0.00  0.00    +0.000 NA
ATOM     16  C   UNL     1     -46.345  -8.964 -37.367  0.00  0.00    +0.000 A 
ATOM     17  N   UNL     1     -46.225 -10.208 -36.816  0.00  0.00    +0.000 NA
ATOM     18  C   UNL     1     -46.026 -10.298 -35.479  0.00  0.00    +0.000 A 
ATOM     19  N   UNL     1     -45.943 -11.422 -34.758  0.00  0.00    +0.000 N 
ATOM     20  C   UNL     1     -45.811 -10.947 -33.490  0.00  0.00    +0.000 A 
ATOM     21  N   UNL     1     -45.816  -9.589 -33.406  0.00  0.00    +0.000 NA
ATOM     22  C   UNL     1     -45.943  -9.211 -34.685  0.00  0.00    +0.000 A 
ATOM     23  H   UNL     1     -45.969 -12.357 -35.067  0.00  0.00    +0.000 HD
ENDROOT
BRANCH   7  24
ATOM     24  C   UNL     1     -43.936  -3.243 -32.356  0.00  0.00    +0.000 A 
ATOM     25  C   UNL     1     -42.884  -3.520 -33.244  0.00  0.00    +0.000 A 
ATOM     26  C   UNL     1     -42.062  -2.493 -33.712  0.00  0.00    +0.000 A 
ATOM     27  C   UNL     1     -42.284  -1.179 -33.298  0.00  0.00    +0.000 A 
ATOM     28  C   UNL     1     -43.328  -0.891 -32.417  0.00  0.00    +0.000 A 
ATOM     29  C   UNL     1     -44.155  -1.915 -31.944  0.00  0.00    +0.000 A 
ATOM     30 CL   UNL     1     -45.460  -1.498 -30.842  0.00  0.00    +0.000 Cl
ENDBRANCH   7  24
TORSDOF 1
ENDMDL
MODEL 3
REMARK VINA RESULT:      -6.5      2.893      3.977
REMARK  Name = ZINC000031808027
REMARK  1 active torsions:
REMARK  status: ('A' for Active; 'I' for Inactive)
REMARK    1  A    between atoms: C_7  and  C_24
REMARK                            x       y       z     vdW  Elec       q    Type
REMARK                         _______ _______ _______ _____ _____    ______ ____
ROOT
ATOM      1  C   UNL     1     -42.618  -6.762 -27.490  0.00  0.00    +0.000 C 
ATOM      2  C   UNL     1     -43.099  -6.097 -28.733  0.00  0.00    +0.000 A 
ATOM      3  N   UNL     1     -42.285  -5.728 -29.738  0.00  0.00    +0.000 NA
ATOM      4  N   UNL     1     -43.034  -5.175 -30.677  0.00  0.00    +0.000 N 
ATOM      5  C   UNL     1     -44.334  -5.210 -30.306  0.00  0.00    +0.000 A 
ATOM      6  C   UNL     1     -44.413  -5.785 -29.038  0.00  0.00    +0.000 A 
ATOM      7  C   UNL     1     -45.587  -6.107 -28.155  0.00  0.00    +0.000 C 
ATOM      8  S   UNL     1     -47.014  -4.988 -28.319  0.00  0.00    +0.000 S 
ATOM      9  C   UNL     1     -47.461  -5.636 -29.946  0.00  0.00    +0.000 C 
ATOM     10  C   UNL     1     -46.814  -4.827 -31.007  0.00  0.00    +0.000 C 
ATOM     11  O   UNL     1     -47.548  -4.221 -31.828  0.00  0.00    +0.000 OA
ATOM     12  N   UNL     1     -45.394  -4.741 -31.156  0.00  0.00    +0.000 N 
ATOM     13  H   UNL     1     -45.093  -4.285 -31.976  0.00  0.00    +0.000 HD
ATOM     14  C   UNL     1     -42.490  -4.692 -31.914  0.00  0.00    +0.000 A 
ATOM     15  N   UNL     1     -41.463  -5.362 -32.519  0.00  0.00    +0.000 NA
ATOM     16  C   UNL     1     -40.901  -4.912 -33.685  0.00  0.00    +0.000 A 
ATOM     17  N   UNL     1     -41.348  -3.761 -34.270  0.00  0.00    +0.000 NA
ATOM     18  C   UNL     1     -42.355  -3.087 -33.666  0.00  0.00    +0.000 A 
ATOM     19  N   UNL     1     -42.881  -1.920 -34.056  0.00  0.00    +0.000 N 
ATOM     20  C   UNL     1     -43.793  -1.669 -33.077  0.00  0.00    +0.000 A 
ATOM     21  N   UNL     1     -43.840  -2.624 -32.109  0.00  0.00    +0.000 NA
ATOM     22  C   UNL     1     -42.924  -3.512 -32.519  0.00  0.00    +0.000 A 
ATOM     23  H   UNL     1     -42.665  -1.380 -34.851  0.00  0.00    +0.000 HD
ENDROOT
BRANCH   7  24
ATOM     24  C   UNL     1     -45.948  -7.568 -28.107  0.00  0.00    +0.000 A 
ATOM     25  C   UNL     1     -45.789  -8.378 -29.243  0.00  0.00    +0.000 A 
ATOM     26  C   UNL     1     -46.121  -9.734 -29.200  0.00  0.00    +0.000 A 
ATOM     27  C   UNL     1     -46.612 -10.294 -28.020  0.00  0.00    +0.000 A 
ATOM     28  C   UNL     1     -46.771  -9.499 -26.883  0.00  0.00    +0.000 A 
ATOM     29  C   UNL     1     -46.442  -8.140 -26.919  0.00  0.00    +0.000 A 
ATOM     30 CL   UNL     1     -46.654  -7.187 -25.458  0.00  0.00    +0.000 Cl
ENDBRANCH   7  24
TORSDOF 1
ENDMDL
