MODEL 1
REMARK VINA RESULT:      -6.3      0.000      0.000
REMARK  Name = ZINC000002099315 CSCC[C@H](NC(=O)Cc1c(C)c2cc3c(C)coc3cc2oc1=O)C(O)=O MCULE-8114226211 MolPort-002-520-341 PubChem-1755356
REMARK  7 active torsions:
REMARK  status: ('A' for Active; 'I' for Inactive)
REMARK    1  A    between atoms: CG_2  and  CB_3
REMARK    2  A    between atoms: CG_2  and  SD_21
REMARK    3  A    between atoms: CB_3  and  CA_4
REMARK    4  A    between atoms: CA_4  and  C_20
REMARK    5  A    between atoms: CA_4  and  N_22
REMARK    6  A    between atoms: C_5  and  C_6
REMARK    7  A    between atoms: C_6  and  C_7
REMARK                            x       y       z     vdW  Elec       q    Type
REMARK                         _______ _______ _______ _____ _____    ______ ____
ROOT
ATOM      1  C   UNK A   0     -47.013  -5.685 -28.503  0.00  0.00    +0.000 A 
ATOM      2  C   UNK A   0     -46.768  -5.836 -27.126  0.00  0.00    +0.000 A 
ATOM      3  C   UNK A   0     -46.250  -7.135 -26.586  0.00  0.00    +0.000 C 
ATOM      4  C   UNK A   0     -47.010  -4.752 -26.268  0.00  0.00    +0.000 A 
ATOM      5  C   UNK A   0     -46.784  -4.844 -24.876  0.00  0.00    +0.000 A 
ATOM      6  C   UNK A   0     -47.054  -3.719 -24.103  0.00  0.00    +0.000 A 
ATOM      7  C   UNK A   0     -47.521  -2.555 -24.644  0.00  0.00    +0.000 A 
ATOM      8  C   UNK A   0     -47.352  -2.179 -22.545  0.00  0.00    +0.000 A 
ATOM      9  C   UNK A   0     -46.941  -3.491 -22.754  0.00  0.00    +0.000 A 
ATOM     10  C   UNK A   0     -46.473  -4.448 -21.714  0.00  0.00    +0.000 C 
ATOM     11  C   UNK A   0     -47.756  -2.422 -26.009  0.00  0.00    +0.000 A 
ATOM     12  C   UNK A   0     -47.499  -3.535 -26.831  0.00  0.00    +0.000 A 
ATOM     13  C   UNK A   0     -47.496  -4.450 -28.975  0.00  0.00    +0.000 A 
ATOM     14  O   UNK A   0     -47.693  -1.651 -23.710  0.00  0.00    +0.000 OA
ATOM     15  O   UNK A   0     -47.714  -3.443 -28.136  0.00  0.00    +0.000 OA
ATOM     16  O   UNK A   0     -47.726  -4.285 -30.204  0.00  0.00    +0.000 OA
ENDROOT
BRANCH   1  17
ATOM     17  C   UNK A   0     -46.798  -6.825 -29.456  0.00  0.00    +0.000 C 
BRANCH  17  18
ATOM     18  C   UNK A   0     -45.805  -6.449 -30.502  0.00  0.00    +0.000 C 
ATOM     19  N   MET A   1     -44.666  -5.664 -30.148  0.00  0.00    +0.000 NA
ATOM     20  O   UNK A   0     -45.965  -6.848 -31.687  0.00  0.00    +0.000 OA
BRANCH  19  21
ATOM     21  CA  MET A   1     -43.648  -5.299 -31.120  0.00  0.00    +0.000 C 
BRANCH  21  22
ATOM     22  C   MET A   1     -42.295  -5.546 -30.541  0.00  0.00    +0.000 C 
ATOM     23  O   MET A   1     -42.145  -5.803 -29.184  0.00  0.00    +0.000 OA
ATOM     24  OXT MET A   1     -41.285  -5.531 -31.289  0.00  0.00    +0.000 OA
ENDBRANCH  21  22
BRANCH  21  25
ATOM     25  CB  MET A   1     -43.788  -3.834 -31.511  0.00  0.00    +0.000 C 
BRANCH  25  26
ATOM     26  CG  MET A   1     -44.722  -3.672 -32.701  0.00  0.00    +0.000 C 
BRANCH  26  28
ATOM     27  CE  MET A   1     -44.485  -1.191 -31.852  0.00  0.00    +0.000 C 
ATOM     28  SD  MET A   1     -44.533  -2.028 -33.461  0.00  0.00    +0.000 S 
ENDBRANCH  26  28
ENDBRANCH  25  26
ENDBRANCH  21  25
ENDBRANCH  19  21
ENDBRANCH  17  18
ENDBRANCH   1  17
TORSDOF 7
ENDMDL
MODEL 2
REMARK VINA RESULT:      -6.2      1.654      2.000
REMARK  Name = ZINC000002099315 CSCC[C@H](NC(=O)Cc1c(C)c2cc3c(C)coc3cc2oc1=O)C(O)=O MCULE-8114226211 MolPort-002-520-341 PubChem-1755356
REMARK  7 active torsions:
REMARK  status: ('A' for Active; 'I' for Inactive)
REMARK    1  A    between atoms: CG_2  and  CB_3
REMARK    2  A    between atoms: CG_2  and  SD_21
REMARK    3  A    between atoms: CB_3  and  CA_4
REMARK    4  A    between atoms: CA_4  and  C_20
REMARK    5  A    between atoms: CA_4  and  N_22
REMARK    6  A    between atoms: C_5  and  C_6
REMARK    7  A    between atoms: C_6  and  C_7
REMARK                            x       y       z     vdW  Elec       q    Type
REMARK                         _______ _______ _______ _____ _____    ______ ____
ROOT
ATOM      1  C   UNK A   0     -46.934  -5.371 -27.986  0.00  0.00    +0.000 A 
ATOM      2  C   UNK A   0     -46.784  -5.570 -26.601  0.00  0.00    +0.000 A 
ATOM      3  C   UNK A   0     -46.385  -6.913 -26.068  0.00  0.00    +0.000 C 
ATOM      4  C   UNK A   0     -47.008  -4.493 -25.729  0.00  0.00    +0.000 A 
ATOM      5  C   UNK A   0     -46.874  -4.633 -24.330  0.00  0.00    +0.000 A 
ATOM      6  C   UNK A   0     -47.118  -3.512 -23.544  0.00  0.00    +0.000 A 
ATOM      7  C   UNK A   0     -47.474  -2.307 -24.079  0.00  0.00    +0.000 A 
ATOM      8  C   UNK A   0     -47.411  -1.993 -21.964  0.00  0.00    +0.000 A 
ATOM      9  C   UNK A   0     -47.073  -3.324 -22.184  0.00  0.00    +0.000 A 
ATOM     10  C   UNK A   0     -46.733  -4.334 -21.145  0.00  0.00    +0.000 C 
ATOM     11  C   UNK A   0     -47.617  -2.126 -25.451  0.00  0.00    +0.000 A 
ATOM     12  C   UNK A   0     -47.381  -3.234 -26.286  0.00  0.00    +0.000 A 
ATOM     13  C   UNK A   0     -47.306  -4.096 -28.452  0.00  0.00    +0.000 A 
ATOM     14  O   UNK A   0     -47.645  -1.416 -23.132  0.00  0.00    +0.000 OA
ATOM     15  O   UNK A   0     -47.510  -3.097 -27.599  0.00  0.00    +0.000 OA
ATOM     16  O   UNK A   0     -47.450  -3.887 -29.687  0.00  0.00    +0.000 OA
ENDROOT
BRANCH   1  17
ATOM     17  C   UNK A   0     -46.734  -6.500 -28.955  0.00  0.00    +0.000 C 
BRANCH  17  18
ATOM     18  C   UNK A   0     -45.393  -6.403 -29.598  0.00  0.00    +0.000 C 
ATOM     19  N   MET A   1     -45.293  -6.044 -30.976  0.00  0.00    +0.000 NA
ATOM     20  O   UNK A   0     -44.356  -6.614 -28.914  0.00  0.00    +0.000 OA
BRANCH  19  21
ATOM     21  CA  MET A   1     -44.010  -5.899 -31.645  0.00  0.00    +0.000 C 
BRANCH  21  22
ATOM     22  C   MET A   1     -43.527  -4.496 -31.501  0.00  0.00    +0.000 C 
ATOM     23  O   MET A   1     -42.167  -4.221 -31.436  0.00  0.00    +0.000 OA
ATOM     24  OXT MET A   1     -44.358  -3.553 -31.446  0.00  0.00    +0.000 OA
ENDBRANCH  21  22
BRANCH  21  25
ATOM     25  CB  MET A   1     -44.136  -6.258 -33.120  0.00  0.00    +0.000 C 
BRANCH  25  26
ATOM     26  CG  MET A   1     -45.435  -7.002 -33.394  0.00  0.00    +0.000 C 
BRANCH  26  28
ATOM     27  CE  MET A   1     -46.755  -4.822 -34.056  0.00  0.00    +0.000 C 
ATOM     28  SD  MET A   1     -46.255  -6.357 -34.885  0.00  0.00    +0.000 S 
ENDBRANCH  26  28
ENDBRANCH  25  26
ENDBRANCH  21  25
ENDBRANCH  19  21
ENDBRANCH  17  18
ENDBRANCH   1  17
TORSDOF 7
ENDMDL
MODEL 3
REMARK VINA RESULT:      -6.0      2.170      2.987
REMARK  Name = ZINC000002099315 CSCC[C@H](NC(=O)Cc1c(C)c2cc3c(C)coc3cc2oc1=O)C(O)=O MCULE-8114226211 MolPort-002-520-341 PubChem-1755356
REMARK  7 active torsions:
REMARK  status: ('A' for Active; 'I' for Inactive)
REMARK    1  A    between atoms: CG_2  and  CB_3
REMARK    2  A    between atoms: CG_2  and  SD_21
REMARK    3  A    between atoms: CB_3  and  CA_4
REMARK    4  A    between atoms: CA_4  and  C_20
REMARK    5  A    between atoms: CA_4  and  N_22
REMARK    6  A    between atoms: C_5  and  C_6
REMARK    7  A    between atoms: C_6  and  C_7
REMARK                            x       y       z     vdW  Elec       q    Type
REMARK                         _______ _______ _______ _____ _____    ______ ____
ROOT
ATOM      1  C   UNK A   0     -46.296  -5.473 -28.892  0.00  0.00    +0.000 A 
ATOM      2  C   UNK A   0     -45.808  -6.140 -27.753  0.00  0.00    +0.000 A 
ATOM      3  C   UNK A   0     -44.790  -7.231 -27.892  0.00  0.00    +0.000 C 
ATOM      4  C   UNK A   0     -46.284  -5.764 -26.487  0.00  0.00    +0.000 A 
ATOM      5  C   UNK A   0     -45.832  -6.397 -25.308  0.00  0.00    +0.000 A 
ATOM      6  C   UNK A   0     -46.360  -5.959 -24.098  0.00  0.00    +0.000 A 
ATOM      7  C   UNK A   0     -47.284  -4.955 -24.024  0.00  0.00    +0.000 A 
ATOM      8  C   UNK A   0     -46.943  -5.564 -22.002  0.00  0.00    +0.000 A 
ATOM      9  C   UNK A   0     -46.132  -6.360 -22.805  0.00  0.00    +0.000 A 
ATOM     10  C   UNK A   0     -45.205  -7.429 -22.343  0.00  0.00    +0.000 C 
ATOM     11  C   UNK A   0     -47.755  -4.305 -25.161  0.00  0.00    +0.000 A 
ATOM     12  C   UNK A   0     -47.249  -4.715 -26.408  0.00  0.00    +0.000 A 
ATOM     13  C   UNK A   0     -47.248  -4.451 -28.725  0.00  0.00    +0.000 A 
ATOM     14  O   UNK A   0     -47.620  -4.731 -22.776  0.00  0.00    +0.000 OA
ATOM     15  O   UNK A   0     -47.678  -4.118 -27.512  0.00  0.00    +0.000 OA
ATOM     16  O   UNK A   0     -47.705  -3.837 -29.727  0.00  0.00    +0.000 OA
ENDROOT
BRANCH   1  17
ATOM     17  C   UNK A   0     -45.839  -5.861 -30.269  0.00  0.00    +0.000 C 
BRANCH  17  18
ATOM     18  C   UNK A   0     -44.756  -4.948 -30.735  0.00  0.00    +0.000 C 
ATOM     19  N   MET A   1     -45.069  -3.872 -31.619  0.00  0.00    +0.000 NA
ATOM     20  O   UNK A   0     -43.577  -5.118 -30.324  0.00  0.00    +0.000 OA
BRANCH  19  21
ATOM     21  CA  MET A   1     -44.060  -2.930 -32.076  0.00  0.00    +0.000 C 
BRANCH  21  22
ATOM     22  C   MET A   1     -44.490  -1.540 -31.747  0.00  0.00    +0.000 C 
ATOM     23  O   MET A   1     -43.828  -0.448 -32.296  0.00  0.00    +0.000 OA
ATOM     24  OXT MET A   1     -45.466  -1.355 -30.976  0.00  0.00    +0.000 OA
ENDBRANCH  21  22
BRANCH  21  25
ATOM     25  CB  MET A   1     -43.844  -3.069 -33.577  0.00  0.00    +0.000 C 
BRANCH  25  26
ATOM     26  CG  MET A   1     -43.201  -4.405 -33.917  0.00  0.00    +0.000 C 
BRANCH  26  28
ATOM     27  CE  MET A   1     -40.840  -4.674 -32.783  0.00  0.00    +0.000 C 
ATOM     28  SD  MET A   1     -41.464  -4.186 -34.415  0.00  0.00    +0.000 S 
ENDBRANCH  26  28
ENDBRANCH  25  26
ENDBRANCH  21  25
ENDBRANCH  19  21
ENDBRANCH  17  18
ENDBRANCH   1  17
TORSDOF 7
ENDMDL
