MODEL 1
REMARK VINA RESULT:      -8.2      0.000      0.000
REMARK  Name = ZINC000067291103 ZINC67291103 MCULE-7927403924 MolPort-019-718-401 PubChem-51366855
REMARK  6 active torsions:
REMARK  status: ('A' for Active; 'I' for Inactive)
REMARK    1  A    between atoms: C_1  and  S_12
REMARK    2  A    between atoms: N_11  and  C_26
REMARK    3  A    between atoms: S_12  and  C_13
REMARK    4  A    between atoms: C_13  and  C_15
REMARK    5  A    between atoms: N_14  and  C_22
REMARK    6  A    between atoms: C_26  and  C_27
REMARK                            x       y       z     vdW  Elec       q    Type
REMARK                         _______ _______ _______ _____ _____    ______ ____
ROOT
ATOM      1  C   UNL     1     -46.753  -6.906 -31.826  0.00  0.00    +0.000 A 
ATOM      2  N   UNL     1     -46.549  -8.192 -31.438  0.00  0.00    +0.000 NA
ATOM      3  C   UNL     1     -46.215  -9.153 -32.330  0.00  0.00    +0.000 A 
ATOM      4  C   UNL     1     -46.008 -10.467 -31.900  0.00  0.00    +0.000 A 
ATOM      5  C   UNL     1     -45.659 -11.458 -32.824  0.00  0.00    +0.000 A 
ATOM      6  C   UNL     1     -45.516 -11.137 -34.177  0.00  0.00    +0.000 A 
ATOM      7  C   UNL     1     -45.722  -9.823 -34.612  0.00  0.00    +0.000 A 
ATOM      8  C   UNL     1     -46.072  -8.825 -33.691  0.00  0.00    +0.000 A 
ATOM      9  C   UNL     1     -46.292  -7.498 -34.082  0.00  0.00    +0.000 A 
ATOM     10  O   UNL     1     -46.178  -7.175 -35.299  0.00  0.00    +0.000 OA
ATOM     11  N   UNL     1     -46.633  -6.556 -33.148  0.00  0.00    +0.000 N 
ENDROOT
BRANCH   1  12
ATOM     12  S   UNL     1     -47.167  -5.696 -30.562  0.00  0.00    +0.000 S 
BRANCH  12  13
ATOM     13  C   UNL     1     -46.467  -6.737 -29.248  0.00  0.00    +0.000 C 
BRANCH  13  15
ATOM     14  N   UNL     1     -47.316  -5.087 -27.548  0.00  0.00    +0.000 N 
ATOM     15  C   UNL     1     -46.259  -5.932 -28.016  0.00  0.00    +0.000 C 
ATOM     16  O   UNL     1     -45.163  -6.014 -27.398  0.00  0.00    +0.000 OA
ATOM     17  H   UNL     1     -48.143  -5.080 -28.082  0.00  0.00    +0.000 HD
BRANCH  14  22
ATOM     18  C   UNL     1     -47.250  -1.624 -22.985  0.00  0.00    +0.000 C 
ATOM     19  C   UNL     1     -47.265  -2.545 -24.155  0.00  0.00    +0.000 A 
ATOM     20  C   UNL     1     -47.363  -2.013 -25.445  0.00  0.00    +0.000 A 
ATOM     21  C   UNL     1     -47.380  -2.863 -26.554  0.00  0.00    +0.000 A 
ATOM     22  C   UNL     1     -47.297  -4.249 -26.385  0.00  0.00    +0.000 A 
ATOM     23  C   UNL     1     -47.201  -4.779 -25.089  0.00  0.00    +0.000 A 
ATOM     24  C   UNL     1     -47.186  -3.932 -23.977  0.00  0.00    +0.000 A 
ATOM     25  F   UNL     1     -47.092  -4.466 -22.734  0.00  0.00    +0.000 F 
ENDBRANCH  14  22
ENDBRANCH  13  15
ENDBRANCH  12  13
ENDBRANCH   1  12
BRANCH  11  26
ATOM     26  C   UNL     1     -46.895  -5.181 -33.585  0.00  0.00    +0.000 C 
BRANCH  26  27
ATOM     27  C   UNL     1     -45.691  -4.303 -33.437  0.00  0.00    +0.000 A 
ATOM     28  C   UNL     1     -44.410  -4.873 -33.612  0.00  0.00    +0.000 A 
ATOM     29  C   UNL     1     -43.250  -4.095 -33.451  0.00  0.00    +0.000 A 
ATOM     30  C   UNL     1     -43.418  -2.756 -33.110  0.00  0.00    +0.000 A 
ATOM     31  O   UNL     1     -42.449  -1.795 -32.905  0.00  0.00    +0.000 OA
ATOM     32  C   UNL     1     -43.107  -0.565 -32.571  0.00  0.00    +0.000 C 
ATOM     33  O   UNL     1     -44.507  -0.873 -32.595  0.00  0.00    +0.000 OA
ATOM     34  C   UNL     1     -44.645  -2.207 -32.927  0.00  0.00    +0.000 A 
ATOM     35  C   UNL     1     -45.816  -2.947 -33.070  0.00  0.00    +0.000 A 
ENDBRANCH  26  27
ENDBRANCH  11  26
TORSDOF 6
ENDMDL
MODEL 2
REMARK VINA RESULT:      -8.0      3.882      7.204
REMARK  Name = ZINC000067291103 ZINC67291103 MCULE-7927403924 MolPort-019-718-401 PubChem-51366855
REMARK  6 active torsions:
REMARK  status: ('A' for Active; 'I' for Inactive)
REMARK    1  A    between atoms: C_1  and  S_12
REMARK    2  A    between atoms: N_11  and  C_26
REMARK    3  A    between atoms: S_12  and  C_13
REMARK    4  A    between atoms: C_13  and  C_15
REMARK    5  A    between atoms: N_14  and  C_22
REMARK    6  A    between atoms: C_26  and  C_27
REMARK                            x       y       z     vdW  Elec       q    Type
REMARK                         _______ _______ _______ _____ _____    ______ ____
ROOT
ATOM      1  C   UNL     1     -46.353  -6.786 -30.083  0.00  0.00    +0.000 A 
ATOM      2  N   UNL     1     -46.220  -7.085 -28.764  0.00  0.00    +0.000 NA
ATOM      3  C   UNL     1     -46.544  -6.189 -27.802  0.00  0.00    +0.000 A 
ATOM      4  C   UNL     1     -46.400  -6.527 -26.454  0.00  0.00    +0.000 A 
ATOM      5  C   UNL     1     -46.738  -5.601 -25.462  0.00  0.00    +0.000 A 
ATOM      6  C   UNL     1     -47.220  -4.338 -25.816  0.00  0.00    +0.000 A 
ATOM      7  C   UNL     1     -47.366  -3.996 -27.164  0.00  0.00    +0.000 A 
ATOM      8  C   UNL     1     -47.029  -4.919 -28.164  0.00  0.00    +0.000 A 
ATOM      9  C   UNL     1     -47.154  -4.618 -29.526  0.00  0.00    +0.000 A 
ATOM     10  O   UNL     1     -47.580  -3.482 -29.881  0.00  0.00    +0.000 OA
ATOM     11  N   UNL     1     -46.812  -5.552 -30.469  0.00  0.00    +0.000 N 
ENDROOT
BRANCH   1  12
ATOM     12  S   UNL     1     -45.923  -8.052 -31.285  0.00  0.00    +0.000 S 
BRANCH  12  13
ATOM     13  C   UNL     1     -47.038  -9.257 -30.507  0.00  0.00    +0.000 C 
BRANCH  13  15
ATOM     14  N   UNL     1     -46.920 -11.460 -29.294  0.00  0.00    +0.000 N 
ATOM     15  C   UNL     1     -46.249 -10.299 -29.800  0.00  0.00    +0.000 C 
ATOM     16  O   UNL     1     -45.004 -10.153 -29.667  0.00  0.00    +0.000 OA
ATOM     17  H   UNL     1     -47.892 -11.505 -29.441  0.00  0.00    +0.000 HD
BRANCH  14  22
ATOM     18  C   UNL     1     -44.625 -15.830 -26.388  0.00  0.00    +0.000 C 
ATOM     19  C   UNL     1     -45.207 -14.700 -27.164  0.00  0.00    +0.000 A 
ATOM     20  C   UNL     1     -46.166 -13.879 -26.565  0.00  0.00    +0.000 A 
ATOM     21  C   UNL     1     -46.723 -12.815 -27.279  0.00  0.00    +0.000 A 
ATOM     22  C   UNL     1     -46.327 -12.561 -28.596  0.00  0.00    +0.000 A 
ATOM     23  C   UNL     1     -45.364 -13.389 -29.195  0.00  0.00    +0.000 A 
ATOM     24  C   UNL     1     -44.806 -14.455 -28.484  0.00  0.00    +0.000 A 
ATOM     25  F   UNL     1     -43.877 -15.242 -29.083  0.00  0.00    +0.000 F 
ENDBRANCH  14  22
ENDBRANCH  13  15
ENDBRANCH  12  13
ENDBRANCH   1  12
BRANCH  11  26
ATOM     26  C   UNL     1     -46.916  -5.201 -31.889  0.00  0.00    +0.000 C 
BRANCH  26  27
ATOM     27  C   UNL     1     -45.838  -4.251 -32.315  0.00  0.00    +0.000 A 
ATOM     28  C   UNL     1     -46.189  -3.146 -33.121  0.00  0.00    +0.000 A 
ATOM     29  C   UNL     1     -45.206  -2.245 -33.571  0.00  0.00    +0.000 A 
ATOM     30  C   UNL     1     -43.889  -2.494 -33.196  0.00  0.00    +0.000 A 
ATOM     31  O   UNL     1     -42.759  -1.763 -33.500  0.00  0.00    +0.000 OA
ATOM     32  C   UNL     1     -41.633  -2.412 -32.893  0.00  0.00    +0.000 C 
ATOM     33  O   UNL     1     -42.180  -3.557 -32.224  0.00  0.00    +0.000 OA
ATOM     34  C   UNL     1     -43.545  -3.562 -32.434  0.00  0.00    +0.000 A 
ATOM     35  C   UNL     1     -44.488  -4.479 -31.976  0.00  0.00    +0.000 A 
ENDBRANCH  26  27
ENDBRANCH  11  26
TORSDOF 6
ENDMDL
MODEL 3
REMARK VINA RESULT:      -7.8      3.893      7.552
REMARK  Name = ZINC000067291103 ZINC67291103 MCULE-7927403924 MolPort-019-718-401 PubChem-51366855
REMARK  6 active torsions:
REMARK  status: ('A' for Active; 'I' for Inactive)
REMARK    1  A    between atoms: C_1  and  S_12
REMARK    2  A    between atoms: N_11  and  C_26
REMARK    3  A    between atoms: S_12  and  C_13
REMARK    4  A    between atoms: C_13  and  C_15
REMARK    5  A    between atoms: N_14  and  C_22
REMARK    6  A    between atoms: C_26  and  C_27
REMARK                            x       y       z     vdW  Elec       q    Type
REMARK                         _______ _______ _______ _____ _____    ______ ____
ROOT
ATOM      1  C   UNL     1     -46.342  -6.743 -28.608  0.00  0.00    +0.000 A 
ATOM      2  N   UNL     1     -46.159  -7.039 -27.294  0.00  0.00    +0.000 NA
ATOM      3  C   UNL     1     -46.468  -6.149 -26.322  0.00  0.00    +0.000 A 
ATOM      4  C   UNL     1     -46.273  -6.483 -24.979  0.00  0.00    +0.000 A 
ATOM      5  C   UNL     1     -46.595  -5.564 -23.976  0.00  0.00    +0.000 A 
ATOM      6  C   UNL     1     -47.114  -4.310 -24.315  0.00  0.00    +0.000 A 
ATOM      7  C   UNL     1     -47.311  -3.971 -25.657  0.00  0.00    +0.000 A 
ATOM      8  C   UNL     1     -46.989  -4.889 -26.668  0.00  0.00    +0.000 A 
ATOM      9  C   UNL     1     -47.166  -4.591 -28.025  0.00  0.00    +0.000 A 
ATOM     10  O   UNL     1     -47.626  -3.464 -28.365  0.00  0.00    +0.000 OA
ATOM     11  N   UNL     1     -46.837  -5.519 -28.978  0.00  0.00    +0.000 N 
ENDROOT
BRANCH   1  12
ATOM     12  S   UNL     1     -45.928  -8.002 -29.823  0.00  0.00    +0.000 S 
BRANCH  12  13
ATOM     13  C   UNL     1     -47.028  -9.214 -29.036  0.00  0.00    +0.000 C 
BRANCH  13  15
ATOM     14  N   UNL     1     -46.820 -11.643 -28.408  0.00  0.00    +0.000 N 
ATOM     15  C   UNL     1     -46.232 -10.338 -28.478  0.00  0.00    +0.000 C 
ATOM     16  O   UNL     1     -45.052 -10.130 -28.086  0.00  0.00    +0.000 OA
ATOM     17  H   UNL     1     -47.744 -11.727 -28.738  0.00  0.00    +0.000 HD
BRANCH  14  22
ATOM     18  C   UNL     1     -44.306 -16.439 -26.541  0.00  0.00    +0.000 C 
ATOM     19  C   UNL     1     -44.971 -15.190 -27.004  0.00  0.00    +0.000 A 
ATOM     20  C   UNL     1     -44.741 -14.731 -28.304  0.00  0.00    +0.000 A 
ATOM     21  C   UNL     1     -45.356 -13.560 -28.753  0.00  0.00    +0.000 A 
ATOM     22  C   UNL     1     -46.207 -12.838 -27.910  0.00  0.00    +0.000 A 
ATOM     23  C   UNL     1     -46.434 -13.301 -26.605  0.00  0.00    +0.000 A 
ATOM     24  C   UNL     1     -45.819 -14.471 -26.151  0.00  0.00    +0.000 A 
ATOM     25  F   UNL     1     -46.053 -14.900 -24.885  0.00  0.00    +0.000 F 
ENDBRANCH  14  22
ENDBRANCH  13  15
ENDBRANCH  12  13
ENDBRANCH   1  12
BRANCH  11  26
ATOM     26  C   UNL     1     -46.995  -5.171 -30.394  0.00  0.00    +0.000 C 
BRANCH  26  27
ATOM     27  C   UNL     1     -45.847  -4.357 -30.906  0.00  0.00    +0.000 A 
ATOM     28  C   UNL     1     -44.571  -4.958 -30.984  0.00  0.00    +0.000 A 
ATOM     29  C   UNL     1     -43.457  -4.223 -31.429  0.00  0.00    +0.000 A 
ATOM     30  C   UNL     1     -43.665  -2.891 -31.776  0.00  0.00    +0.000 A 
ATOM     31  O   UNL     1     -42.746  -1.973 -32.242  0.00  0.00    +0.000 OA
ATOM     32  C   UNL     1     -43.430  -0.731 -32.459  0.00  0.00    +0.000 C 
ATOM     33  O   UNL     1     -44.792  -0.987 -32.092  0.00  0.00    +0.000 OA
ATOM     34  C   UNL     1     -44.885  -2.305 -31.689  0.00  0.00    +0.000 A 
ATOM     35  C   UNL     1     -46.009  -2.998 -31.247  0.00  0.00    +0.000 A 
ENDBRANCH  26  27
ENDBRANCH  11  26
TORSDOF 6
ENDMDL
