MODEL 1
REMARK VINA RESULT:      -7.6      0.000      0.000
REMARK  Name = ZINC000020135468 ZINC20135468 PubChem-92655510
REMARK  3 active torsions:
REMARK  status: ('A' for Active; 'I' for Inactive)
REMARK    1  A    between atoms: C_2  and  O_19
REMARK    2  A    between atoms: C_6  and  C_8
REMARK    3  A    between atoms: C_10  and  C_13
REMARK                            x       y       z     vdW  Elec       q    Type
REMARK                         _______ _______ _______ _____ _____    ______ ____
ROOT
ATOM      1  C   UNL     1     -47.255  -3.328 -26.183  0.00  0.00    +0.000 C 
ATOM      2  C   UNL     1     -46.862  -4.861 -28.187  0.00  0.00    +0.000 C 
ATOM      3  C   UNL     1     -47.153  -4.163 -30.511  0.00  0.00    +0.000 C 
ATOM      4  C   UNL     1     -47.359  -5.628 -30.921  0.00  0.00    +0.000 C 
ATOM      5  C   UNL     1     -46.646  -6.550 -29.983  0.00  0.00    +0.000 C 
ATOM      6  O   UNL     1     -47.583  -2.344 -26.901  0.00  0.00    +0.000 OA
ATOM      7  O   UNL     1     -46.234  -7.668 -30.385  0.00  0.00    +0.000 OA
ATOM      8  N   UNL     1     -46.890  -4.578 -26.784  0.00  0.00    +0.000 NA
ATOM      9  N   UNL     1     -47.229  -3.965 -29.058  0.00  0.00    +0.000 NA
ATOM     10  N   UNL     1     -46.455  -6.161 -28.624  0.00  0.00    +0.000 NA
ENDROOT
BRANCH   3  11
ATOM     11  C   UNL     1     -45.881  -3.595 -31.063  0.00  0.00    +0.000 A 
ATOM     12  C   UNL     1     -44.792  -4.419 -31.387  0.00  0.00    +0.000 A 
ATOM     13  C   UNL     1     -43.612  -3.861 -31.891  0.00  0.00    +0.000 A 
ATOM     14  C   UNL     1     -43.516  -2.478 -32.071  0.00  0.00    +0.000 A 
ATOM     15  C   UNL     1     -44.597  -1.654 -31.745  0.00  0.00    +0.000 A 
ATOM     16  C   UNL     1     -45.776  -2.211 -31.241  0.00  0.00    +0.000 A 
ATOM     17  F   UNL     1     -44.502  -0.313 -31.918  0.00  0.00    +0.000 F 
ENDBRANCH   3  11
BRANCH   1  22
ATOM     18  C   UNL     1     -47.206  -4.207 -22.499  0.00  0.00    +0.000 A 
ATOM     19  C   UNL     1     -47.227  -2.934 -21.921  0.00  0.00    +0.000 A 
ATOM     20  C   UNL     1     -47.258  -1.794 -22.729  0.00  0.00    +0.000 A 
ATOM     21  C   UNL     1     -47.267  -1.921 -24.119  0.00  0.00    +0.000 A 
ATOM     22  C   UNL     1     -47.245  -3.190 -24.716  0.00  0.00    +0.000 A 
ATOM     23  C   UNL     1     -47.215  -4.329 -23.898  0.00  0.00    +0.000 A 
BRANCH  18  25
ATOM     24  C   UNL     1     -47.468  -6.638 -22.131  0.00  0.00    +0.000 C 
ATOM     25  O   UNL     1     -47.175  -5.328 -21.665  0.00  0.00    +0.000 OA
ENDBRANCH  18  25
ENDBRANCH   1  22
TORSDOF 3
ENDMDL
MODEL 2
REMARK VINA RESULT:      -7.4      1.694      2.532
REMARK  Name = ZINC000020135468 ZINC20135468 PubChem-92655510
REMARK  3 active torsions:
REMARK  status: ('A' for Active; 'I' for Inactive)
REMARK    1  A    between atoms: C_2  and  O_19
REMARK    2  A    between atoms: C_6  and  C_8
REMARK    3  A    between atoms: C_10  and  C_13
REMARK                            x       y       z     vdW  Elec       q    Type
REMARK                         _______ _______ _______ _____ _____    ______ ____
ROOT
ATOM      1  C   UNL     1     -46.956  -4.508 -27.694  0.00  0.00    +0.000 C 
ATOM      2  C   UNL     1     -46.202  -5.231 -30.026  0.00  0.00    +0.000 C 
ATOM      3  C   UNL     1     -46.830  -4.065 -32.080  0.00  0.00    +0.000 C 
ATOM      4  C   UNL     1     -46.577  -5.350 -32.881  0.00  0.00    +0.000 C 
ATOM      5  C   UNL     1     -45.555  -6.207 -32.205  0.00  0.00    +0.000 C 
ATOM      6  O   UNL     1     -47.622  -3.529 -28.128  0.00  0.00    +0.000 OA
ATOM      7  O   UNL     1     -44.827  -6.979 -32.882  0.00  0.00    +0.000 OA
ATOM      8  N   UNL     1     -46.241  -5.361 -28.600  0.00  0.00    +0.000 NA
ATOM      9  N   UNL     1     -46.886  -4.302 -30.631  0.00  0.00    +0.000 NA
ATOM     10  N   UNL     1     -45.424  -6.159 -30.785  0.00  0.00    +0.000 NA
ENDROOT
BRANCH   3  11
ATOM     11  C   UNL     1     -45.842  -2.989 -32.409  0.00  0.00    +0.000 A 
ATOM     12  C   UNL     1     -44.969  -3.106 -33.502  0.00  0.00    +0.000 A 
ATOM     13  C   UNL     1     -44.048  -2.091 -33.781  0.00  0.00    +0.000 A 
ATOM     14  C   UNL     1     -43.994  -0.956 -32.967  0.00  0.00    +0.000 A 
ATOM     15  C   UNL     1     -44.859  -0.837 -31.874  0.00  0.00    +0.000 A 
ATOM     16  C   UNL     1     -45.779  -1.851 -31.595  0.00  0.00    +0.000 A 
ATOM     17  F   UNL     1     -44.804   0.263 -31.085  0.00  0.00    +0.000 F 
ENDBRANCH   3  11
BRANCH   1  22
ATOM     18  C   UNL     1     -47.260  -4.037 -23.949  0.00  0.00    +0.000 A 
ATOM     19  C   UNL     1     -46.820  -5.281 -23.487  0.00  0.00    +0.000 A 
ATOM     20  C   UNL     1     -46.424  -6.269 -24.393  0.00  0.00    +0.000 A 
ATOM     21  C   UNL     1     -46.469  -6.018 -25.766  0.00  0.00    +0.000 A 
ATOM     22  C   UNL     1     -46.909  -4.776 -26.246  0.00  0.00    +0.000 A 
ATOM     23  C   UNL     1     -47.303  -3.790 -25.331  0.00  0.00    +0.000 A 
BRANCH  18  25
ATOM     24  C   UNL     1     -47.407  -1.682 -23.209  0.00  0.00    +0.000 C 
ATOM     25  O   UNL     1     -47.649  -3.069 -23.018  0.00  0.00    +0.000 OA
ENDBRANCH  18  25
ENDBRANCH   1  22
TORSDOF 3
ENDMDL
MODEL 3
REMARK VINA RESULT:      -7.3      1.607      1.891
REMARK  Name = ZINC000020135468 ZINC20135468 PubChem-92655510
REMARK  3 active torsions:
REMARK  status: ('A' for Active; 'I' for Inactive)
REMARK    1  A    between atoms: C_2  and  O_19
REMARK    2  A    between atoms: C_6  and  C_8
REMARK    3  A    between atoms: C_10  and  C_13
REMARK                            x       y       z     vdW  Elec       q    Type
REMARK                         _______ _______ _______ _____ _____    ______ ____
ROOT
ATOM      1  C   UNL     1     -47.057  -4.302 -27.525  0.00  0.00    +0.000 C 
ATOM      2  C   UNL     1     -46.134  -5.231 -29.719  0.00  0.00    +0.000 C 
ATOM      3  C   UNL     1     -46.712  -4.344 -31.921  0.00  0.00    +0.000 C 
ATOM      4  C   UNL     1     -46.340  -5.691 -32.557  0.00  0.00    +0.000 C 
ATOM      5  C   UNL     1     -45.310  -6.401 -31.737  0.00  0.00    +0.000 C 
ATOM      6  O   UNL     1     -47.753  -3.422 -28.101  0.00  0.00    +0.000 OA
ATOM      7  O   UNL     1     -44.503  -7.195 -32.284  0.00  0.00    +0.000 OA
ATOM      8  N   UNL     1     -46.245  -5.204 -28.291  0.00  0.00    +0.000 NA
ATOM      9  N   UNL     1     -46.835  -4.420 -30.459  0.00  0.00    +0.000 NA
ATOM     10  N   UNL     1     -45.262  -6.187 -30.328  0.00  0.00    +0.000 NA
ENDROOT
BRANCH   3  11
ATOM     11  C   UNL     1     -45.770  -3.250 -32.323  0.00  0.00    +0.000 A 
ATOM     12  C   UNL     1     -44.893  -3.402 -33.407  0.00  0.00    +0.000 A 
ATOM     13  C   UNL     1     -44.016  -2.368 -33.754  0.00  0.00    +0.000 A 
ATOM     14  C   UNL     1     -44.011  -1.180 -33.016  0.00  0.00    +0.000 A 
ATOM     15  C   UNL     1     -44.881  -1.027 -31.933  0.00  0.00    +0.000 A 
ATOM     16  C   UNL     1     -45.757  -2.060 -31.586  0.00  0.00    +0.000 A 
ATOM     17  F   UNL     1     -44.874   0.124 -31.218  0.00  0.00    +0.000 F 
ENDBRANCH   3  11
BRANCH   1  22
ATOM     18  C   UNL     1     -46.915  -5.751 -24.029  0.00  0.00    +0.000 A 
ATOM     19  C   UNL     1     -47.113  -4.602 -23.256  0.00  0.00    +0.000 A 
ATOM     20  C   UNL     1     -47.293  -3.361 -23.873  0.00  0.00    +0.000 A 
ATOM     21  C   UNL     1     -47.275  -3.262 -25.266  0.00  0.00    +0.000 A 
ATOM     22  C   UNL     1     -47.076  -4.404 -26.055  0.00  0.00    +0.000 A 
ATOM     23  C   UNL     1     -46.898  -5.646 -25.429  0.00  0.00    +0.000 A 
BRANCH  18  25
ATOM     24  C   UNL     1     -46.646  -8.209 -24.087  0.00  0.00    +0.000 C 
ATOM     25  O   UNL     1     -46.738  -6.978 -23.383  0.00  0.00    +0.000 OA
ENDBRANCH  18  25
ENDBRANCH   1  22
TORSDOF 3
ENDMDL
