MODEL 1
REMARK VINA RESULT:      -6.8      0.000      0.000
REMARK  Name = ZINC000031807936
REMARK  2 active torsions:
REMARK  status: ('A' for Active; 'I' for Inactive)
REMARK    1  A    between atoms: C_1  and  C_27
REMARK    2  A    between atoms: C_24  and  O_31
REMARK                            x       y       z     vdW  Elec       q    Type
REMARK                         _______ _______ _______ _____ _____    ______ ____
ROOT
ATOM      1  C   UNL     1     -45.741  -6.363 -28.610  0.00  0.00    +0.000 C 
ATOM      2  S   UNL     1     -47.194  -5.307 -28.909  0.00  0.00    +0.000 S 
ATOM      3  C   UNL     1     -47.360  -5.855 -30.624  0.00  0.00    +0.000 C 
ATOM      4  C   UNL     1     -46.625  -4.930 -31.519  0.00  0.00    +0.000 C 
ATOM      5  O   UNL     1     -47.273  -4.307 -32.398  0.00  0.00    +0.000 OA
ATOM      6  N   UNL     1     -45.209  -4.745 -31.444  0.00  0.00    +0.000 N 
ATOM      7  C   UNL     1     -44.255  -5.231 -30.485  0.00  0.00    +0.000 A 
ATOM      8  C   UNL     1     -44.476  -5.928 -29.297  0.00  0.00    +0.000 A 
ATOM      9  C   UNL     1     -43.201  -6.195 -28.827  0.00  0.00    +0.000 A 
ATOM     10  C   UNL     1     -42.861  -6.937 -27.582  0.00  0.00    +0.000 C 
ATOM     11  N   UNL     1     -42.277  -5.693 -29.666  0.00  0.00    +0.000 NA
ATOM     12  N   UNL     1     -42.920  -5.096 -30.656  0.00  0.00    +0.000 N 
ATOM     13  H   UNL     1     -44.826  -4.196 -32.165  0.00  0.00    +0.000 HD
ATOM     14  C   UNL     1     -42.237  -4.474 -31.755  0.00  0.00    +0.000 A 
ATOM     15  N   UNL     1     -41.118  -5.053 -32.284  0.00  0.00    +0.000 NA
ATOM     16  C   UNL     1     -40.426  -4.470 -33.313  0.00  0.00    +0.000 A 
ATOM     17  N   UNL     1     -40.833  -3.272 -33.831  0.00  0.00    +0.000 NA
ATOM     18  C   UNL     1     -41.933  -2.689 -33.298  0.00  0.00    +0.000 A 
ATOM     19  N   UNL     1     -42.445  -1.497 -33.631  0.00  0.00    +0.000 N 
ATOM     20  C   UNL     1     -43.483  -1.371 -32.761  0.00  0.00    +0.000 A 
ATOM     21  N   UNL     1     -43.622  -2.425 -31.911  0.00  0.00    +0.000 NA
ATOM     22  C   UNL     1     -42.631  -3.246 -32.287  0.00  0.00    +0.000 A 
ATOM     23  H   UNL     1     -42.145  -0.872 -34.331  0.00  0.00    +0.000 HD
ENDROOT
BRANCH   1  27
ATOM     24  C   UNL     1     -46.612 -10.579 -28.877  0.00  0.00    +0.000 A 
ATOM     25  C   UNL     1     -45.908  -9.948 -29.908  0.00  0.00    +0.000 A 
ATOM     26  C   UNL     1     -45.618  -8.582 -29.831  0.00  0.00    +0.000 A 
ATOM     27  C   UNL     1     -46.027  -7.835 -28.716  0.00  0.00    +0.000 A 
ATOM     28  C   UNL     1     -46.735  -8.464 -27.688  0.00  0.00    +0.000 A 
ATOM     29  C   UNL     1     -47.026  -9.828 -27.765  0.00  0.00    +0.000 A 
BRANCH  24  31
ATOM     30  C   UNL     1     -46.987 -12.798 -27.851  0.00  0.00    +0.000 C 
ATOM     31  O   UNL     1     -46.886 -11.945 -28.984  0.00  0.00    +0.000 OA
ENDBRANCH  24  31
ENDBRANCH   1  27
TORSDOF 2
ENDMDL
MODEL 2
REMARK VINA RESULT:      -6.8      3.669      7.601
REMARK  Name = ZINC000031807936
REMARK  2 active torsions:
REMARK  status: ('A' for Active; 'I' for Inactive)
REMARK    1  A    between atoms: C_1  and  C_27
REMARK    2  A    between atoms: C_24  and  O_31
REMARK                            x       y       z     vdW  Elec       q    Type
REMARK                         _______ _______ _______ _____ _____    ______ ____
ROOT
ATOM      1  C   UNL     1     -46.165  -4.617 -31.314  0.00  0.00    +0.000 C 
ATOM      2  S   UNL     1     -46.267  -5.058 -29.550  0.00  0.00    +0.000 S 
ATOM      3  C   UNL     1     -44.553  -5.630 -29.494  0.00  0.00    +0.000 C 
ATOM      4  C   UNL     1     -44.503  -7.088 -29.756  0.00  0.00    +0.000 C 
ATOM      5  O   UNL     1     -44.040  -7.842 -28.862  0.00  0.00    +0.000 OA
ATOM      6  N   UNL     1     -44.926  -7.666 -30.994  0.00  0.00    +0.000 N 
ATOM      7  C   UNL     1     -45.587  -7.070 -32.123  0.00  0.00    +0.000 A 
ATOM      8  C   UNL     1     -46.096  -5.779 -32.266  0.00  0.00    +0.000 A 
ATOM      9  C   UNL     1     -46.550  -5.745 -33.574  0.00  0.00    +0.000 A 
ATOM     10  C   UNL     1     -47.180  -4.580 -34.255  0.00  0.00    +0.000 C 
ATOM     11  N   UNL     1     -46.335  -6.928 -34.176  0.00  0.00    +0.000 NA
ATOM     12  N   UNL     1     -45.770  -7.731 -33.289  0.00  0.00    +0.000 N 
ATOM     13  H   UNL     1     -44.734  -8.627 -31.088  0.00  0.00    +0.000 HD
ATOM     14  C   UNL     1     -45.374  -9.073 -33.606  0.00  0.00    +0.000 A 
ATOM     15  N   UNL     1     -44.822  -9.356 -34.824  0.00  0.00    +0.000 NA
ATOM     16  C   UNL     1     -44.460 -10.633 -35.169  0.00  0.00    +0.000 A 
ATOM     17  N   UNL     1     -44.660 -11.669 -34.299  0.00  0.00    +0.000 NA
ATOM     18  C   UNL     1     -45.220 -11.392 -33.098  0.00  0.00    +0.000 A 
ATOM     19  N   UNL     1     -45.544 -12.277 -32.146  0.00  0.00    +0.000 N 
ATOM     20  C   UNL     1     -46.123 -11.490 -31.200  0.00  0.00    +0.000 A 
ATOM     21  N   UNL     1     -46.172 -10.171 -31.533  0.00  0.00    +0.000 NA
ATOM     22  C   UNL     1     -45.581 -10.144 -32.736  0.00  0.00    +0.000 A 
ATOM     23  H   UNL     1     -45.399 -13.251 -32.135  0.00  0.00    +0.000 HD
ENDROOT
BRANCH   1  27
ATOM     24  C   UNL     1     -43.382  -1.423 -32.122  0.00  0.00    +0.000 A 
ATOM     25  C   UNL     1     -42.972  -2.752 -32.257  0.00  0.00    +0.000 A 
ATOM     26  C   UNL     1     -43.866  -3.796 -32.000  0.00  0.00    +0.000 A 
ATOM     27  C   UNL     1     -45.184  -3.517 -31.609  0.00  0.00    +0.000 A 
ATOM     28  C   UNL     1     -45.593  -2.188 -31.470  0.00  0.00    +0.000 A 
ATOM     29  C   UNL     1     -44.700  -1.144 -31.725  0.00  0.00    +0.000 A 
BRANCH  24  31
ATOM     30  C   UNL     1     -41.069  -0.638 -32.513  0.00  0.00    +0.000 C 
ATOM     31  O   UNL     1     -42.465  -0.402 -32.386  0.00  0.00    +0.000 OA
ENDBRANCH  24  31
ENDBRANCH   1  27
TORSDOF 2
ENDMDL
MODEL 3
REMARK VINA RESULT:      -6.5      3.177      4.813
REMARK  Name = ZINC000031807936
REMARK  2 active torsions:
REMARK  status: ('A' for Active; 'I' for Inactive)
REMARK    1  A    between atoms: C_1  and  C_27
REMARK    2  A    between atoms: C_24  and  O_31
REMARK                            x       y       z     vdW  Elec       q    Type
REMARK                         _______ _______ _______ _____ _____    ______ ____
ROOT
ATOM      1  C   UNL     1     -46.552  -7.106 -27.284  0.00  0.00    +0.000 C 
ATOM      2  S   UNL     1     -46.752  -8.639 -28.246  0.00  0.00    +0.000 S 
ATOM      3  C   UNL     1     -45.096  -8.521 -28.961  0.00  0.00    +0.000 C 
ATOM      4  C   UNL     1     -45.160  -7.812 -30.261  0.00  0.00    +0.000 C 
ATOM      5  O   UNL     1     -44.794  -8.426 -31.296  0.00  0.00    +0.000 OA
ATOM      6  N   UNL     1     -45.587  -6.453 -30.379  0.00  0.00    +0.000 N 
ATOM      7  C   UNL     1     -46.156  -5.566 -29.401  0.00  0.00    +0.000 A 
ATOM      8  C   UNL     1     -46.548  -5.836 -28.090  0.00  0.00    +0.000 A 
ATOM      9  C   UNL     1     -46.953  -4.603 -27.605  0.00  0.00    +0.000 A 
ATOM     10  C   UNL     1     -47.457  -4.320 -26.233  0.00  0.00    +0.000 C 
ATOM     11  N   UNL     1     -46.818  -3.659 -28.553  0.00  0.00    +0.000 NA
ATOM     12  N   UNL     1     -46.354  -4.250 -29.642  0.00  0.00    +0.000 N 
ATOM     13  H   UNL     1     -45.475  -6.061 -31.275  0.00  0.00    +0.000 HD
ATOM     14  C   UNL     1     -46.062  -3.527 -30.848  0.00  0.00    +0.000 A 
ATOM     15  N   UNL     1     -45.495  -2.285 -30.783  0.00  0.00    +0.000 NA
ATOM     16  C   UNL     1     -45.231  -1.557 -31.914  0.00  0.00    +0.000 A 
ATOM     17  N   UNL     1     -45.548  -2.053 -33.148  0.00  0.00    +0.000 NA
ATOM     18  C   UNL     1     -46.123  -3.277 -33.213  0.00  0.00    +0.000 A 
ATOM     19  N   UNL     1     -46.554  -3.898 -34.318  0.00  0.00    +0.000 N 
ATOM     20  C   UNL     1     -47.097  -5.042 -33.818  0.00  0.00    +0.000 A 
ATOM     21  N   UNL     1     -47.022  -5.142 -32.463  0.00  0.00    +0.000 NA
ATOM     22  C   UNL     1     -46.390  -4.013 -32.113  0.00  0.00    +0.000 A 
ATOM     23  H   UNL     1     -46.492  -3.602 -35.255  0.00  0.00    +0.000 HD
ENDROOT
BRANCH   1  27
ATOM     24  C   UNL     1     -43.489  -7.354 -24.258  0.00  0.00    +0.000 A 
ATOM     25  C   UNL     1     -43.135  -7.089 -25.584  0.00  0.00    +0.000 A 
ATOM     26  C   UNL     1     -44.119  -7.003 -26.574  0.00  0.00    +0.000 A 
ATOM     27  C   UNL     1     -45.471  -7.179 -26.242  0.00  0.00    +0.000 A 
ATOM     28  C   UNL     1     -45.825  -7.449 -24.917  0.00  0.00    +0.000 A 
ATOM     29  C   UNL     1     -44.841  -7.536 -23.928  0.00  0.00    +0.000 A 
BRANCH  24  31
ATOM     30  C   UNL     1     -41.484  -6.432 -23.140  0.00  0.00    +0.000 C 
ATOM     31  O   UNL     1     -42.482  -7.433 -23.292  0.00  0.00    +0.000 OA
ENDBRANCH  24  31
ENDBRANCH   1  27
TORSDOF 2
ENDMDL
