MODEL 1
REMARK VINA RESULT:      -6.3      0.000      0.000
REMARK  Name = ZINC000005372514 ZINC05372514 PubChem-92261926
REMARK  9 active torsions:
REMARK  status: ('A' for Active; 'I' for Inactive)
REMARK    1  A    between atoms: N_14  and  C_20
REMARK    2  A    between atoms: C_20  and  C_21
REMARK    3  A    between atoms: C_21  and  O_22
REMARK    4  A    between atoms: C_21  and  C_24
REMARK    5  A    between atoms: C_24  and  O_25
REMARK    6  A    between atoms: C_24  and  C_27
REMARK    7  A    between atoms: C_27  and  O_28
REMARK    8  A    between atoms: C_27  and  C_30
REMARK    9  A    between atoms: C_30  and  O_31
REMARK                            x       y       z     vdW  Elec       q    Type
REMARK                         _______ _______ _______ _____ _____    ______ ____
ROOT
ATOM      1  C   UNL     1     -46.814 -12.619 -19.449  0.00  0.00    +0.000 C 
ATOM      2  C   UNL     1     -46.466 -13.946 -20.034  0.00  0.00    +0.000 A 
ATOM      3  C   UNL     1     -46.277 -14.041 -21.414  0.00  0.00    +0.000 A 
ATOM      4  C   UNL     1     -45.949 -15.265 -22.004  0.00  0.00    +0.000 A 
ATOM      5  C   UNL     1     -45.773 -15.325 -23.382  0.00  0.00    +0.000 A 
ATOM      6  C   UNL     1     -45.452 -16.536 -23.985  0.00  0.00    +0.000 A 
ATOM      7  C   UNL     1     -45.270 -16.661 -25.367  0.00  0.00    +0.000 A 
ATOM      8  O   UNL     1     -45.387 -15.662 -26.127  0.00  0.00    +0.000 OA
ATOM      9  N   UNL     1     -44.965 -17.875 -25.901  0.00  0.00    +0.000 N 
ATOM     10  C   UNL     1     -44.824 -18.998 -25.144  0.00  0.00    +0.000 A 
ATOM     11  O   UNL     1     -44.542 -20.092 -25.697  0.00  0.00    +0.000 OA
ATOM     12  C   UNL     1     -44.989 -18.949 -23.758  0.00  0.00    +0.000 A 
ATOM     13  C   UNL     1     -45.300 -17.737 -23.132  0.00  0.00    +0.000 A 
ATOM     14  N   UNL     1     -45.471 -17.636 -21.775  0.00  0.00    +0.000 N 
ATOM     15  C   UNL     1     -45.798 -16.427 -21.205  0.00  0.00    +0.000 A 
ATOM     16  C   UNL     1     -45.997 -16.313 -19.817  0.00  0.00    +0.000 A 
ATOM     17  C   UNL     1     -46.326 -15.090 -19.230  0.00  0.00    +0.000 A 
ATOM     18  C   UNL     1     -46.520 -15.034 -17.753  0.00  0.00    +0.000 C 
ATOM     19  H   UNL     1     -44.840 -17.944 -26.875  0.00  0.00    +0.000 HD
ENDROOT
BRANCH  14  20
ATOM     20  C   UNL     1     -45.297 -18.825 -20.931  0.00  0.00    +0.000 C 
BRANCH  20  21
ATOM     21  C   UNL     1     -43.835 -18.983 -20.511  0.00  0.00    +0.000 C 
BRANCH  21  22
ATOM     22  O   UNL     1     -43.277 -20.098 -21.137  0.00  0.00    +0.000 OA
ATOM     23  H   UNL     1     -43.504 -20.898 -20.638  0.00  0.00    +0.000 HD
ENDBRANCH  21  22
BRANCH  21  24
ATOM     24  C   UNL     1     -43.680 -19.120 -18.993  0.00  0.00    +0.000 C 
BRANCH  24  25
ATOM     25  O   UNL     1     -43.232 -17.928 -18.418  0.00  0.00    +0.000 OA
ATOM     26  H   UNL     1     -42.384 -17.675 -18.816  0.00  0.00    +0.000 HD
ENDBRANCH  24  25
BRANCH  24  27
ATOM     27  C   UNL     1     -42.793 -20.290 -18.554  0.00  0.00    +0.000 C 
BRANCH  27  28
ATOM     28  O   UNL     1     -43.543 -21.421 -18.222  0.00  0.00    +0.000 OA
ATOM     29  H   UNL     1     -42.984 -22.211 -18.294  0.00  0.00    +0.000 HD
ENDBRANCH  27  28
BRANCH  27  30
ATOM     30  C   UNL     1     -41.840 -19.912 -17.425  0.00  0.00    +0.000 C 
BRANCH  30  31
ATOM     31  O   UNL     1     -42.535 -19.686 -16.236  0.00  0.00    +0.000 OA
ATOM     32  H   UNL     1     -42.481 -18.746 -16.004  0.00  0.00    +0.000 HD
ENDBRANCH  30  31
ENDBRANCH  27  30
ENDBRANCH  24  27
ENDBRANCH  21  24
ENDBRANCH  20  21
ENDBRANCH  14  20
TORSDOF 9
ENDMDL
MODEL 2
REMARK VINA RESULT:      -5.9      2.491      6.204
REMARK  Name = ZINC000005372514 ZINC05372514 PubChem-92261926
REMARK  9 active torsions:
REMARK  status: ('A' for Active; 'I' for Inactive)
REMARK    1  A    between atoms: N_14  and  C_20
REMARK    2  A    between atoms: C_20  and  C_21
REMARK    3  A    between atoms: C_21  and  O_22
REMARK    4  A    between atoms: C_21  and  C_24
REMARK    5  A    between atoms: C_24  and  O_25
REMARK    6  A    between atoms: C_24  and  C_27
REMARK    7  A    between atoms: C_27  and  O_28
REMARK    8  A    between atoms: C_27  and  C_30
REMARK    9  A    between atoms: C_30  and  O_31
REMARK                            x       y       z     vdW  Elec       q    Type
REMARK                         _______ _______ _______ _____ _____    ______ ____
ROOT
ATOM      1  C   UNL     1     -46.107 -14.887 -17.852  0.00  0.00    +0.000 C 
ATOM      2  C   UNL     1     -46.027 -15.172 -19.314  0.00  0.00    +0.000 A 
ATOM      3  C   UNL     1     -45.447 -16.371 -19.733  0.00  0.00    +0.000 A 
ATOM      4  C   UNL     1     -45.352 -16.678 -21.093  0.00  0.00    +0.000 A 
ATOM      5  C   UNL     1     -44.762 -17.878 -21.475  0.00  0.00    +0.000 A 
ATOM      6  C   UNL     1     -44.655 -18.196 -22.824  0.00  0.00    +0.000 A 
ATOM      7  C   UNL     1     -44.066 -19.384 -23.271  0.00  0.00    +0.000 A 
ATOM      8  O   UNL     1     -43.609 -20.226 -22.451  0.00  0.00    +0.000 OA
ATOM      9  N   UNL     1     -43.983 -19.637 -24.605  0.00  0.00    +0.000 N 
ATOM     10  C   UNL     1     -44.452 -18.775 -25.549  0.00  0.00    +0.000 A 
ATOM     11  O   UNL     1     -44.344 -19.065 -26.768  0.00  0.00    +0.000 OA
ATOM     12  C   UNL     1     -45.054 -17.571 -25.178  0.00  0.00    +0.000 A 
ATOM     13  C   UNL     1     -45.182 -17.240 -23.824  0.00  0.00    +0.000 A 
ATOM     14  N   UNL     1     -45.766 -16.071 -23.408  0.00  0.00    +0.000 N 
ATOM     15  C   UNL     1     -45.850 -15.776 -22.067  0.00  0.00    +0.000 A 
ATOM     16  C   UNL     1     -46.428 -14.571 -21.627  0.00  0.00    +0.000 A 
ATOM     17  C   UNL     1     -46.521 -14.265 -20.268  0.00  0.00    +0.000 A 
ATOM     18  C   UNL     1     -47.147 -12.974 -19.866  0.00  0.00    +0.000 C 
ATOM     19  H   UNL     1     -43.565 -20.478 -24.901  0.00  0.00    +0.000 HD
ENDROOT
BRANCH  14  20
ATOM     20  C   UNL     1     -46.307 -15.135 -24.403  0.00  0.00    +0.000 C 
BRANCH  20  21
ATOM     21  C   UNL     1     -45.387 -13.924 -24.566  0.00  0.00    +0.000 C 
BRANCH  21  22
ATOM     22  O   UNL     1     -46.122 -12.746 -24.434  0.00  0.00    +0.000 OA
ATOM     23  H   UNL     1     -45.635 -12.121 -23.874  0.00  0.00    +0.000 HD
ENDBRANCH  21  22
BRANCH  21  24
ATOM     24  C   UNL     1     -44.662 -13.925 -25.916  0.00  0.00    +0.000 C 
BRANCH  24  25
ATOM     25  O   UNL     1     -44.221 -12.644 -26.256  0.00  0.00    +0.000 OA
ATOM     26  H   UNL     1     -44.538 -12.007 -25.597  0.00  0.00    +0.000 HD
ENDBRANCH  24  25
BRANCH  24  27
ATOM     27  C   UNL     1     -45.471 -14.534 -27.065  0.00  0.00    +0.000 C 
BRANCH  27  28
ATOM     28  O   UNL     1     -44.708 -15.413 -27.837  0.00  0.00    +0.000 OA
ATOM     29  H   UNL     1     -44.549 -16.229 -27.336  0.00  0.00    +0.000 HD
ENDBRANCH  27  28
BRANCH  27  30
ATOM     30  C   UNL     1     -46.141 -13.477 -27.936  0.00  0.00    +0.000 C 
BRANCH  30  31
ATOM     31  O   UNL     1     -47.207 -12.875 -27.265  0.00  0.00    +0.000 OA
ATOM     32  H   UNL     1     -47.571 -13.495 -26.615  0.00  0.00    +0.000 HD
ENDBRANCH  30  31
ENDBRANCH  27  30
ENDBRANCH  24  27
ENDBRANCH  21  24
ENDBRANCH  20  21
ENDBRANCH  14  20
TORSDOF 9
ENDMDL
MODEL 3
REMARK VINA RESULT:      -5.6      2.083      5.451
REMARK  Name = ZINC000005372514 ZINC05372514 PubChem-92261926
REMARK  9 active torsions:
REMARK  status: ('A' for Active; 'I' for Inactive)
REMARK    1  A    between atoms: N_14  and  C_20
REMARK    2  A    between atoms: C_20  and  C_21
REMARK    3  A    between atoms: C_21  and  O_22
REMARK    4  A    between atoms: C_21  and  C_24
REMARK    5  A    between atoms: C_24  and  O_25
REMARK    6  A    between atoms: C_24  and  C_27
REMARK    7  A    between atoms: C_27  and  O_28
REMARK    8  A    between atoms: C_27  and  C_30
REMARK    9  A    between atoms: C_30  and  O_31
REMARK                            x       y       z     vdW  Elec       q    Type
REMARK                         _______ _______ _______ _____ _____    ______ ____
ROOT
ATOM      1  C   UNL     1     -45.316 -14.476 -17.545  0.00  0.00    +0.000 C 
ATOM      2  C   UNL     1     -45.155 -15.456 -18.658  0.00  0.00    +0.000 A 
ATOM      3  C   UNL     1     -44.110 -16.379 -18.592  0.00  0.00    +0.000 A 
ATOM      4  C   UNL     1     -43.923 -17.316 -19.612  0.00  0.00    +0.000 A 
ATOM      5  C   UNL     1     -42.868 -18.216 -19.518  0.00  0.00    +0.000 A 
ATOM      6  C   UNL     1     -42.664 -19.151 -20.527  0.00  0.00    +0.000 A 
ATOM      7  C   UNL     1     -41.617 -20.078 -20.492  0.00  0.00    +0.000 A 
ATOM      8  O   UNL     1     -40.809 -20.104 -19.524  0.00  0.00    +0.000 OA
ATOM      9  N   UNL     1     -41.464 -20.963 -21.513  0.00  0.00    +0.000 N 
ATOM     10  C   UNL     1     -42.294 -20.995 -22.592  0.00  0.00    +0.000 A 
ATOM     11  O   UNL     1     -42.099 -21.837 -23.505  0.00  0.00    +0.000 OA
ATOM     12  C   UNL     1     -43.363 -20.101 -22.695  0.00  0.00    +0.000 A 
ATOM     13  C   UNL     1     -43.590 -19.162 -21.682  0.00  0.00    +0.000 A 
ATOM     14  N   UNL     1     -44.626 -18.264 -21.736  0.00  0.00    +0.000 N 
ATOM     15  C   UNL     1     -44.798 -17.343 -20.728  0.00  0.00    +0.000 A 
ATOM     16  C   UNL     1     -45.843 -16.403 -20.780  0.00  0.00    +0.000 A 
ATOM     17  C   UNL     1     -46.028 -15.468 -19.760  0.00  0.00    +0.000 A 
ATOM     18  C   UNL     1     -47.156 -14.500 -19.872  0.00  0.00    +0.000 C 
ATOM     19  H   UNL     1     -40.721 -21.608 -21.471  0.00  0.00    +0.000 HD
ENDROOT
BRANCH  14  20
ATOM     20  C   UNL     1     -45.555 -18.294 -22.873  0.00  0.00    +0.000 C 
BRANCH  20  21
ATOM     21  C   UNL     1     -44.959 -17.565 -24.079  0.00  0.00    +0.000 C 
BRANCH  21  22
ATOM     22  O   UNL     1     -45.382 -16.236 -24.088  0.00  0.00    +0.000 OA
ATOM     23  H   UNL     1     -44.956 -15.766 -24.823  0.00  0.00    +0.000 HD
ENDBRANCH  21  22
BRANCH  21  24
ATOM     24  C   UNL     1     -45.340 -18.232 -25.405  0.00  0.00    +0.000 C 
BRANCH  24  25
ATOM     25  O   UNL     1     -45.926 -19.482 -25.196  0.00  0.00    +0.000 OA
ATOM     26  H   UNL     1     -46.829 -19.479 -25.548  0.00  0.00    +0.000 HD
ENDBRANCH  24  25
BRANCH  24  27
ATOM     27  C   UNL     1     -44.186 -18.344 -26.406  0.00  0.00    +0.000 C 
BRANCH  27  28
ATOM     28  O   UNL     1     -44.397 -19.361 -27.340  0.00  0.00    +0.000 OA
ATOM     29  H   UNL     1     -45.290 -19.723 -27.228  0.00  0.00    +0.000 HD
ENDBRANCH  27  28
BRANCH  27  30
ATOM     30  C   UNL     1     -42.830 -18.497 -25.724  0.00  0.00    +0.000 C 
BRANCH  30  31
ATOM     31  O   UNL     1     -42.311 -19.778 -25.923  0.00  0.00    +0.000 OA
ATOM     32  H   UNL     1     -42.151 -19.919 -26.870  0.00  0.00    +0.000 HD
ENDBRANCH  30  31
ENDBRANCH  27  30
ENDBRANCH  24  27
ENDBRANCH  21  24
ENDBRANCH  20  21
ENDBRANCH  14  20
TORSDOF 9
ENDMDL
