MODEL 1
REMARK VINA RESULT:      -6.6      0.000      0.000
REMARK  Name = ZINC000009668994 ZINC09668994 MCULE-8076656681 MolPort-002-986-247 PubChem-16479684
REMARK  7 active torsions:
REMARK  status: ('A' for Active; 'I' for Inactive)
REMARK    1  A    between atoms: C_1  and  C_2
REMARK    2  A    between atoms: C_1  and  S_16
REMARK    3  A    between atoms: N_4  and  C_6
REMARK    4  A    between atoms: C_8  and  N_13
REMARK    5  A    between atoms: S_16  and  C_20
REMARK    6  A    between atoms: C_17  and  C_29
REMARK    7  A    between atoms: N_21  and  C_22
REMARK                            x       y       z     vdW  Elec       q    Type
REMARK                         _______ _______ _______ _____ _____    ______ ____
ROOT
ATOM      1  C   UNL     1     -44.184 -18.891 -24.024  0.00  0.00    +0.000 C 
ENDROOT
BRANCH   1   2
ATOM      2  C   UNL     1     -44.927 -19.003 -25.314  0.00  0.00    +0.000 C 
ATOM      3  O   UNL     1     -45.555 -20.066 -25.555  0.00  0.00    +0.000 OA
ATOM      4  N   UNL     1     -44.935 -17.957 -26.296  0.00  0.00    +0.000 N 
ATOM      5  H   UNL     1     -45.246 -18.210 -27.196  0.00  0.00    +0.000 HD
BRANCH   4   6
ATOM      6  C   UNL     1     -44.541 -16.585 -26.125  0.00  0.00    +0.000 A 
ATOM      7  C   UNL     1     -45.438 -15.620 -25.641  0.00  0.00    +0.000 A 
ATOM      8  C   UNL     1     -45.055 -14.280 -25.503  0.00  0.00    +0.000 A 
ATOM      9  C   UNL     1     -43.758 -13.900 -25.869  0.00  0.00    +0.000 A 
ATOM     10  C   UNL     1     -42.858 -14.848 -26.361  0.00  0.00    +0.000 A 
ATOM     11  C   UNL     1     -43.243 -16.185 -26.492  0.00  0.00    +0.000 A 
ATOM     12  C   UNL     1     -42.258 -17.167 -27.027  0.00  0.00    +0.000 C 
BRANCH   8  13
ATOM     13  N   UNL     1     -45.980 -13.315 -24.986  0.00  0.00    +0.000 N 
ATOM     14  O   UNL     1     -46.599 -12.425 -25.836  0.00  0.00    +0.000 OA
ATOM     15  O   UNL     1     -46.250 -13.282 -23.767  0.00  0.00    +0.000 OA
ENDBRANCH   8  13
ENDBRANCH   4   6
ENDBRANCH   1   2
BRANCH   1  16
ATOM     16  S   UNL     1     -45.200 -18.041 -22.781  0.00  0.00    +0.000 S 
BRANCH  16  20
ATOM     17  C   UNL     1     -43.605 -19.427 -19.542  0.00  0.00    +0.000 A 
ATOM     18  N   UNL     1     -43.022 -20.234 -20.449  0.00  0.00    +0.000 NA
ATOM     19  N   UNL     1     -43.497 -19.893 -21.637  0.00  0.00    +0.000 NA
ATOM     20  C   UNL     1     -44.371 -18.888 -21.436  0.00  0.00    +0.000 A 
ATOM     21  N   UNL     1     -44.465 -18.562 -20.127  0.00  0.00    +0.000 N 
BRANCH  21  22
ATOM     22  C   UNL     1     -45.270 -17.538 -19.506  0.00  0.00    +0.000 A 
ATOM     23  C   UNL     1     -46.645 -17.737 -19.301  0.00  0.00    +0.000 A 
ATOM     24  C   UNL     1     -47.424 -16.746 -18.694  0.00  0.00    +0.000 A 
ATOM     25  C   UNL     1     -46.836 -15.544 -18.292  0.00  0.00    +0.000 A 
ATOM     26  C   UNL     1     -45.470 -15.332 -18.496  0.00  0.00    +0.000 A 
ATOM     27  C   UNL     1     -44.694 -16.324 -19.099  0.00  0.00    +0.000 A 
ENDBRANCH  21  22
BRANCH  17  29
ATOM     28  C   UNL     1     -42.147 -18.623 -17.722  0.00  0.00    +0.000 C 
ATOM     29  C   UNL     1     -43.325 -19.507 -18.078  0.00  0.00    +0.000 C 
ENDBRANCH  17  29
ENDBRANCH  16  20
ENDBRANCH   1  16
TORSDOF 7
ENDMDL
MODEL 2
REMARK VINA RESULT:      -6.3      2.548      8.023
REMARK  Name = ZINC000009668994 ZINC09668994 MCULE-8076656681 MolPort-002-986-247 PubChem-16479684
REMARK  7 active torsions:
REMARK  status: ('A' for Active; 'I' for Inactive)
REMARK    1  A    between atoms: C_1  and  C_2
REMARK    2  A    between atoms: C_1  and  S_16
REMARK    3  A    between atoms: N_4  and  C_6
REMARK    4  A    between atoms: C_8  and  N_13
REMARK    5  A    between atoms: S_16  and  C_20
REMARK    6  A    between atoms: C_17  and  C_29
REMARK    7  A    between atoms: N_21  and  C_22
REMARK                            x       y       z     vdW  Elec       q    Type
REMARK                         _______ _______ _______ _____ _____    ______ ____
ROOT
ATOM      1  C   UNL     1     -46.137 -13.702 -21.822  0.00  0.00    +0.000 C 
ENDROOT
BRANCH   1   2
ATOM      2  C   UNL     1     -45.893 -13.523 -20.360  0.00  0.00    +0.000 C 
ATOM      3  O   UNL     1     -45.994 -12.367 -19.872  0.00  0.00    +0.000 OA
ATOM      4  N   UNL     1     -45.529 -14.609 -19.497  0.00  0.00    +0.000 N 
ATOM      5  H   UNL     1     -45.164 -14.360 -18.617  0.00  0.00    +0.000 HD
BRANCH   4   6
ATOM      6  C   UNL     1     -45.632 -16.019 -19.763  0.00  0.00    +0.000 A 
ATOM      7  C   UNL     1     -44.718 -16.675 -20.599  0.00  0.00    +0.000 A 
ATOM      8  C   UNL     1     -44.841 -18.043 -20.876  0.00  0.00    +0.000 A 
ATOM      9  C   UNL     1     -45.906 -18.759 -20.313  0.00  0.00    +0.000 A 
ATOM     10  C   UNL     1     -46.829 -18.116 -19.486  0.00  0.00    +0.000 A 
ATOM     11  C   UNL     1     -46.698 -16.752 -19.210  0.00  0.00    +0.000 A 
ATOM     12  C   UNL     1     -47.706 -16.099 -18.327  0.00  0.00    +0.000 C 
BRANCH   8  13
ATOM     13  N   UNL     1     -43.883 -18.699 -21.716  0.00  0.00    +0.000 N 
ATOM     14  O   UNL     1     -43.217 -17.989 -22.690  0.00  0.00    +0.000 OA
ATOM     15  O   UNL     1     -43.626 -19.911 -21.562  0.00  0.00    +0.000 OA
ENDBRANCH   8  13
ENDBRANCH   4   6
ENDBRANCH   1   2
BRANCH   1  16
ATOM     16  S   UNL     1     -44.583 -13.538 -22.748  0.00  0.00    +0.000 S 
BRANCH  16  20
ATOM     17  C   UNL     1     -46.293 -12.982 -26.171  0.00  0.00    +0.000 A 
ATOM     18  N   UNL     1     -46.384 -11.738 -25.664  0.00  0.00    +0.000 NA
ATOM     19  N   UNL     1     -45.851 -11.770 -24.452  0.00  0.00    +0.000 NA
ATOM     20  C   UNL     1     -45.451 -13.038 -24.235  0.00  0.00    +0.000 A 
ATOM     21  N   UNL     1     -45.709 -13.833 -25.298  0.00  0.00    +0.000 N 
BRANCH  21  22
ATOM     22  C   UNL     1     -45.423 -15.237 -25.467  0.00  0.00    +0.000 A 
ATOM     23  C   UNL     1     -46.207 -16.209 -24.826  0.00  0.00    +0.000 A 
ATOM     24  C   UNL     1     -45.932 -17.570 -24.994  0.00  0.00    +0.000 A 
ATOM     25  C   UNL     1     -44.864 -17.972 -25.802  0.00  0.00    +0.000 A 
ATOM     26  C   UNL     1     -44.073 -17.014 -26.440  0.00  0.00    +0.000 A 
ATOM     27  C   UNL     1     -44.351 -15.656 -26.273  0.00  0.00    +0.000 A 
ENDBRANCH  21  22
BRANCH  17  29
ATOM     28  C   UNL     1     -45.725 -13.082 -28.570  0.00  0.00    +0.000 C 
ATOM     29  C   UNL     1     -46.794 -13.349 -27.529  0.00  0.00    +0.000 C 
ENDBRANCH  17  29
ENDBRANCH  16  20
ENDBRANCH   1  16
TORSDOF 7
ENDMDL
MODEL 3
REMARK VINA RESULT:      -6.2      3.465      6.000
REMARK  Name = ZINC000009668994 ZINC09668994 MCULE-8076656681 MolPort-002-986-247 PubChem-16479684
REMARK  7 active torsions:
REMARK  status: ('A' for Active; 'I' for Inactive)
REMARK    1  A    between atoms: C_1  and  C_2
REMARK    2  A    between atoms: C_1  and  S_16
REMARK    3  A    between atoms: N_4  and  C_6
REMARK    4  A    between atoms: C_8  and  N_13
REMARK    5  A    between atoms: S_16  and  C_20
REMARK    6  A    between atoms: C_17  and  C_29
REMARK    7  A    between atoms: N_21  and  C_22
REMARK                            x       y       z     vdW  Elec       q    Type
REMARK                         _______ _______ _______ _____ _____    ______ ____
ROOT
ATOM      1  C   UNL     1     -42.144 -14.713 -21.249  0.00  0.00    +0.000 C 
ENDROOT
BRANCH   1   2
ATOM      2  C   UNL     1     -42.602 -13.541 -22.053  0.00  0.00    +0.000 C 
ATOM      3  O   UNL     1     -41.875 -13.141 -22.998  0.00  0.00    +0.000 OA
ATOM      4  N   UNL     1     -43.826 -12.844 -21.777  0.00  0.00    +0.000 N 
ATOM      5  H   UNL     1     -43.924 -11.959 -22.198  0.00  0.00    +0.000 HD
BRANCH   4   6
ATOM      6  C   UNL     1     -44.924 -13.281 -20.960  0.00  0.00    +0.000 A 
ATOM      7  C   UNL     1     -45.000 -12.954 -19.597  0.00  0.00    +0.000 A 
ATOM      8  C   UNL     1     -46.059 -13.408 -18.801  0.00  0.00    +0.000 A 
ATOM      9  C   UNL     1     -47.051 -14.211 -19.378  0.00  0.00    +0.000 A 
ATOM     10  C   UNL     1     -46.984 -14.552 -20.730  0.00  0.00    +0.000 A 
ATOM     11  C   UNL     1     -45.927 -14.093 -21.522  0.00  0.00    +0.000 A 
ATOM     12  C   UNL     1     -45.885 -14.482 -22.960  0.00  0.00    +0.000 C 
BRANCH   8  13
ATOM     13  N   UNL     1     -46.129 -13.043 -17.416  0.00  0.00    +0.000 N 
ATOM     14  O   UNL     1     -45.829 -13.970 -16.442  0.00  0.00    +0.000 OA
ATOM     15  O   UNL     1     -46.440 -11.883 -17.078  0.00  0.00    +0.000 OA
ENDBRANCH   8  13
ENDBRANCH   4   6
ENDBRANCH   1   2
BRANCH   1  16
ATOM     16  S   UNL     1     -42.300 -16.243 -22.215  0.00  0.00    +0.000 S 
BRANCH  16  20
ATOM     17  C   UNL     1     -45.249 -17.876 -20.319  0.00  0.00    +0.000 A 
ATOM     18  N   UNL     1     -44.790 -17.048 -19.362  0.00  0.00    +0.000 NA
ATOM     19  N   UNL     1     -43.737 -16.419 -19.861  0.00  0.00    +0.000 NA
ATOM     20  C   UNL     1     -43.563 -16.881 -21.114  0.00  0.00    +0.000 A 
ATOM     21  N   UNL     1     -44.500 -17.800 -21.443  0.00  0.00    +0.000 N 
BRANCH  21  22
ATOM     22  C   UNL     1     -44.669 -18.513 -22.685  0.00  0.00    +0.000 A 
ATOM     23  C   UNL     1     -45.673 -18.139 -23.593  0.00  0.00    +0.000 A 
ATOM     24  C   UNL     1     -45.833 -18.828 -24.800  0.00  0.00    +0.000 A 
ATOM     25  C   UNL     1     -44.994 -19.903 -25.108  0.00  0.00    +0.000 A 
ATOM     26  C   UNL     1     -43.996 -20.289 -24.209  0.00  0.00    +0.000 A 
ATOM     27  C   UNL     1     -43.836 -19.597 -23.006  0.00  0.00    +0.000 A 
ENDBRANCH  21  22
BRANCH  17  29
ATOM     28  C   UNL     1     -46.105 -19.873 -19.153  0.00  0.00    +0.000 C 
ATOM     29  C   UNL     1     -46.434 -18.765 -20.132  0.00  0.00    +0.000 C 
ENDBRANCH  17  29
ENDBRANCH  16  20
ENDBRANCH   1  16
TORSDOF 7
ENDMDL
