MODEL 1
REMARK VINA RESULT:      -7.1      0.000      0.000
REMARK  Name = ZINC000031811413
REMARK  3 active torsions:
REMARK  status: ('A' for Active; 'I' for Inactive)
REMARK    1  A    between atoms: C_1  and  C_27
REMARK    2  A    between atoms: C_24  and  O_33
REMARK    3  A    between atoms: C_29  and  O_30
REMARK                            x       y       z     vdW  Elec       q    Type
REMARK                         _______ _______ _______ _____ _____    ______ ____
ROOT
ATOM      1  C   UNL     1     -44.919 -17.090 -23.415  0.00  0.00    +0.000 C 
ATOM      2  S   UNL     1     -43.451 -17.427 -24.427  0.00  0.00    +0.000 S 
ATOM      3  C   UNL     1     -44.495 -17.450 -25.894  0.00  0.00    +0.000 C 
ATOM      4  C   UNL     1     -44.460 -16.110 -26.528  0.00  0.00    +0.000 C 
ATOM      5  O   UNL     1     -44.051 -16.018 -27.714  0.00  0.00    +0.000 OA
ATOM      6  N   UNL     1     -44.883 -14.925 -25.848  0.00  0.00    +0.000 N 
ATOM      7  C   UNL     1     -45.348 -14.732 -24.500  0.00  0.00    +0.000 A 
ATOM      8  C   UNL     1     -45.304 -15.620 -23.418  0.00  0.00    +0.000 A 
ATOM      9  C   UNL     1     -45.829 -14.864 -22.365  0.00  0.00    +0.000 A 
ATOM     10  C   UNL     1     -46.115 -15.311 -20.974  0.00  0.00    +0.000 C 
ATOM     11  N   UNL     1     -46.117 -13.619 -22.783  0.00  0.00    +0.000 NA
ATOM     12  N   UNL     1     -45.832 -13.546 -24.070  0.00  0.00    +0.000 N 
ATOM     13  H   UNL     1     -44.851 -14.105 -26.393  0.00  0.00    +0.000 HD
ATOM     14  C   UNL     1     -46.002 -12.342 -24.832  0.00  0.00    +0.000 A 
ATOM     15  N   UNL     1     -45.846 -11.124 -24.230  0.00  0.00    +0.000 NA
ATOM     16  C   UNL     1     -46.031  -9.954 -24.920  0.00  0.00    +0.000 A 
ATOM     17  N   UNL     1     -46.395  -9.976 -26.237  0.00  0.00    +0.000 NA
ATOM     18  C   UNL     1     -46.564 -11.181 -26.832  0.00  0.00    +0.000 A 
ATOM     19  N   UNL     1     -46.973 -11.402 -28.088  0.00  0.00    +0.000 N 
ATOM     20  C   UNL     1     -47.035 -12.761 -28.141  0.00  0.00    +0.000 A 
ATOM     21  N   UNL     1     -46.689 -13.375 -26.976  0.00  0.00    +0.000 NA
ATOM     22  C   UNL     1     -46.387 -12.346 -26.173  0.00  0.00    +0.000 A 
ATOM     23  H   UNL     1     -47.176 -10.747 -28.793  0.00  0.00    +0.000 HD
ENDROOT
BRANCH   1  27
ATOM     24  C   UNL     1     -44.356 -18.820 -19.508  0.00  0.00    +0.000 A 
ATOM     25  C   UNL     1     -43.328 -18.089 -20.126  0.00  0.00    +0.000 A 
ATOM     26  C   UNL     1     -43.519 -17.531 -21.392  0.00  0.00    +0.000 A 
ATOM     27  C   UNL     1     -44.738 -17.698 -22.057  0.00  0.00    +0.000 A 
ATOM     28  C   UNL     1     -45.768 -18.426 -21.441  0.00  0.00    +0.000 A 
ATOM     29  C   UNL     1     -45.579 -18.984 -20.175  0.00  0.00    +0.000 A 
BRANCH  29  30
ATOM     30  O   UNL     1     -46.608 -19.703 -19.581  0.00  0.00    +0.000 OA
ATOM     31  H   UNL     1     -47.035 -20.390 -20.056  0.00  0.00    +0.000 HD
ENDBRANCH  29  30
BRANCH  24  33
ATOM     32  C   UNL     1     -42.910 -19.524 -17.625  0.00  0.00    +0.000 C 
ATOM     33  O   UNL     1     -44.184 -19.387 -18.241  0.00  0.00    +0.000 OA
ENDBRANCH  24  33
ENDBRANCH   1  27
TORSDOF 3
ENDMDL
MODEL 2
REMARK VINA RESULT:      -6.8      7.823     13.045
REMARK  Name = ZINC000031811413
REMARK  3 active torsions:
REMARK  status: ('A' for Active; 'I' for Inactive)
REMARK    1  A    between atoms: C_1  and  C_27
REMARK    2  A    between atoms: C_24  and  O_33
REMARK    3  A    between atoms: C_29  and  O_30
REMARK                            x       y       z     vdW  Elec       q    Type
REMARK                         _______ _______ _______ _____ _____    ______ ____
ROOT
ATOM      1  C   UNL     1     -45.135  -7.437 -32.914  0.00  0.00    +0.000 C 
ATOM      2  S   UNL     1     -46.197  -8.215 -34.163  0.00  0.00    +0.000 S 
ATOM      3  C   UNL     1     -45.141  -9.673 -34.119  0.00  0.00    +0.000 C 
ATOM      4  C   UNL     1     -45.733 -10.666 -33.191  0.00  0.00    +0.000 C 
ATOM      5  O   UNL     1     -46.040 -11.800 -33.641  0.00  0.00    +0.000 OA
ATOM      6  N   UNL     1     -45.957 -10.387 -31.806  0.00  0.00    +0.000 N 
ATOM      7  C   UNL     1     -45.745  -9.184 -31.045  0.00  0.00    +0.000 A 
ATOM      8  C   UNL     1     -45.467  -7.891 -31.503  0.00  0.00    +0.000 A 
ATOM      9  C   UNL     1     -45.435  -7.137 -30.325  0.00  0.00    +0.000 A 
ATOM     10  C   UNL     1     -45.092  -5.696 -30.171  0.00  0.00    +0.000 C 
ATOM     11  N   UNL     1     -45.715  -7.916 -29.264  0.00  0.00    +0.000 NA
ATOM     12  N   UNL     1     -45.894  -9.149 -29.703  0.00  0.00    +0.000 N 
ATOM     13  H   UNL     1     -46.316 -11.144 -31.287  0.00  0.00    +0.000 HD
ATOM     14  C   UNL     1     -46.232 -10.237 -28.829  0.00  0.00    +0.000 A 
ATOM     15  N   UNL     1     -46.977 -10.006 -27.707  0.00  0.00    +0.000 NA
ATOM     16  C   UNL     1     -47.292 -11.017 -26.835  0.00  0.00    +0.000 A 
ATOM     17  N   UNL     1     -46.851 -12.290 -27.061  0.00  0.00    +0.000 NA
ATOM     18  C   UNL     1     -46.100 -12.518 -28.166  0.00  0.00    +0.000 A 
ATOM     19  N   UNL     1     -45.534 -13.678 -28.521  0.00  0.00    +0.000 N 
ATOM     20  C   UNL     1     -44.854 -13.338 -29.650  0.00  0.00    +0.000 A 
ATOM     21  N   UNL     1     -44.974 -12.026 -29.994  0.00  0.00    +0.000 NA
ATOM     22  C   UNL     1     -45.779 -11.540 -29.038  0.00  0.00    +0.000 A 
ATOM     23  H   UNL     1     -45.596 -14.555 -28.079  0.00  0.00    +0.000 HD
ENDROOT
BRANCH   1  27
ATOM     24  C   UNL     1     -45.070  -3.168 -33.505  0.00  0.00    +0.000 A 
ATOM     25  C   UNL     1     -43.879  -3.884 -33.299  0.00  0.00    +0.000 A 
ATOM     26  C   UNL     1     -43.910  -5.267 -33.109  0.00  0.00    +0.000 A 
ATOM     27  C   UNL     1     -45.129  -5.952 -33.121  0.00  0.00    +0.000 A 
ATOM     28  C   UNL     1     -46.320  -5.241 -33.329  0.00  0.00    +0.000 A 
ATOM     29  C   UNL     1     -46.292  -3.857 -33.520  0.00  0.00    +0.000 A 
BRANCH  29  30
ATOM     30  O   UNL     1     -47.481  -3.168 -33.723  0.00  0.00    +0.000 OA
ATOM     31  H   UNL     1     -48.256  -3.425 -33.262  0.00  0.00    +0.000 HD
ENDBRANCH  29  30
BRANCH  24  33
ATOM     32  C   UNL     1     -44.039  -0.941 -33.181  0.00  0.00    +0.000 C 
ATOM     33  O   UNL     1     -45.062  -1.782 -33.696  0.00  0.00    +0.000 OA
ENDBRANCH  24  33
ENDBRANCH   1  27
TORSDOF 3
ENDMDL
MODEL 3
REMARK VINA RESULT:      -6.7      2.890      3.606
REMARK  Name = ZINC000031811413
REMARK  3 active torsions:
REMARK  status: ('A' for Active; 'I' for Inactive)
REMARK    1  A    between atoms: C_1  and  C_27
REMARK    2  A    between atoms: C_24  and  O_33
REMARK    3  A    between atoms: C_29  and  O_30
REMARK                            x       y       z     vdW  Elec       q    Type
REMARK                         _______ _______ _______ _____ _____    ______ ____
ROOT
ATOM      1  C   UNL     1     -44.399 -15.672 -26.849  0.00  0.00    +0.000 C 
ATOM      2  S   UNL     1     -42.786 -15.241 -27.559  0.00  0.00    +0.000 S 
ATOM      3  C   UNL     1     -43.616 -14.696 -29.061  0.00  0.00    +0.000 C 
ATOM      4  C   UNL     1     -43.827 -13.230 -28.987  0.00  0.00    +0.000 C 
ATOM      5  O   UNL     1     -43.316 -12.505 -29.880  0.00  0.00    +0.000 OA
ATOM      6  N   UNL     1     -44.595 -12.613 -27.950  0.00  0.00    +0.000 N 
ATOM      7  C   UNL     1     -45.245 -13.182 -26.800  0.00  0.00    +0.000 A 
ATOM      8  C   UNL     1     -45.118 -14.469 -26.263  0.00  0.00    +0.000 A 
ATOM      9  C   UNL     1     -45.926 -14.419 -25.123  0.00  0.00    +0.000 A 
ATOM     10  C   UNL     1     -46.258 -15.530 -24.189  0.00  0.00    +0.000 C 
ATOM     11  N   UNL     1     -46.451 -13.189 -24.976  0.00  0.00    +0.000 NA
ATOM     12  N   UNL     1     -46.043 -12.450 -25.992  0.00  0.00    +0.000 N 
ATOM     13  H   UNL     1     -44.695 -11.637 -28.038  0.00  0.00    +0.000 HD
ATOM     14  C   UNL     1     -46.405 -11.069 -26.135  0.00  0.00    +0.000 A 
ATOM     15  N   UNL     1     -46.612 -10.298 -25.024  0.00  0.00    +0.000 NA
ATOM     16  C   UNL     1     -46.988  -8.983 -25.125  0.00  0.00    +0.000 A 
ATOM     17  N   UNL     1     -47.181  -8.408 -26.350  0.00  0.00    +0.000 NA
ATOM     18  C   UNL     1     -46.990  -9.174 -27.451  0.00  0.00    +0.000 A 
ATOM     19  N   UNL     1     -47.185  -8.807 -28.723  0.00  0.00    +0.000 N 
ATOM     20  C   UNL     1     -46.917  -9.955 -29.404  0.00  0.00    +0.000 A 
ATOM     21  N   UNL     1     -46.572 -11.003 -28.606  0.00  0.00    +0.000 NA
ATOM     22  C   UNL     1     -46.619 -10.470 -27.376  0.00  0.00    +0.000 A 
ATOM     23  H   UNL     1     -47.455  -7.929 -29.076  0.00  0.00    +0.000 HD
ENDROOT
BRANCH   1  27
ATOM     24  C   UNL     1     -43.904 -18.990 -24.144  0.00  0.00    +0.000 A 
ATOM     25  C   UNL     1     -43.124 -17.830 -24.009  0.00  0.00    +0.000 A 
ATOM     26  C   UNL     1     -43.292 -16.759 -24.890  0.00  0.00    +0.000 A 
ATOM     27  C   UNL     1     -44.238 -16.835 -25.917  0.00  0.00    +0.000 A 
ATOM     28  C   UNL     1     -45.020 -17.992 -26.053  0.00  0.00    +0.000 A 
ATOM     29  C   UNL     1     -44.854 -19.064 -25.173  0.00  0.00    +0.000 A 
BRANCH  29  30
ATOM     30  O   UNL     1     -45.636 -20.202 -25.324  0.00  0.00    +0.000 OA
ATOM     31  H   UNL     1     -45.381 -21.004 -24.909  0.00  0.00    +0.000 HD
ENDBRANCH  29  30
BRANCH  24  33
ATOM     32  C   UNL     1     -42.774 -21.088 -23.470  0.00  0.00    +0.000 C 
ATOM     33  O   UNL     1     -43.751 -20.074 -23.273  0.00  0.00    +0.000 OA
ENDBRANCH  24  33
ENDBRANCH   1  27
TORSDOF 3
ENDMDL
