MODEL 1
REMARK VINA RESULT:      -7.1      0.000      0.000
REMARK  Name = ZINC000031810754
REMARK  1 active torsions:
REMARK  status: ('A' for Active; 'I' for Inactive)
REMARK    1  A    between atoms: C_7  and  C_24
REMARK                            x       y       z     vdW  Elec       q    Type
REMARK                         _______ _______ _______ _____ _____    ______ ____
ROOT
ATOM      1  C   UNL     1     -42.783  -5.638 -34.875  0.00  0.00    +0.000 C 
ATOM      2  C   UNL     1     -43.629  -6.025 -33.713  0.00  0.00    +0.000 A 
ATOM      3  N   UNL     1     -43.492  -7.188 -33.052  0.00  0.00    +0.000 NA
ATOM      4  N   UNL     1     -44.390  -7.204 -32.080  0.00  0.00    +0.000 N 
ATOM      5  C   UNL     1     -45.088  -6.045 -32.083  0.00  0.00    +0.000 A 
ATOM      6  C   UNL     1     -44.635  -5.262 -33.144  0.00  0.00    +0.000 A 
ATOM      7  C   UNL     1     -45.011  -3.878 -33.596  0.00  0.00    +0.000 C 
ATOM      8  S   UNL     1     -46.752  -3.429 -33.319  0.00  0.00    +0.000 S 
ATOM      9  C   UNL     1     -46.514  -3.258 -31.535  0.00  0.00    +0.000 C 
ATOM     10  C   UNL     1     -46.826  -4.539 -30.857  0.00  0.00    +0.000 C 
ATOM     11  O   UNL     1     -47.756  -4.557 -30.010  0.00  0.00    +0.000 OA
ATOM     12  N   UNL     1     -46.089  -5.742 -31.096  0.00  0.00    +0.000 N 
ATOM     13  H   UNL     1     -46.301  -6.484 -30.484  0.00  0.00    +0.000 HD
ATOM     14  C   UNL     1     -44.504  -8.292 -31.152  0.00  0.00    +0.000 A 
ATOM     15  N   UNL     1     -43.381  -8.929 -30.702  0.00  0.00    +0.000 NA
ATOM     16  C   UNL     1     -43.457  -9.990 -29.837  0.00  0.00    +0.000 A 
ATOM     17  N   UNL     1     -44.670 -10.453 -29.411  0.00  0.00    +0.000 NA
ATOM     18  C   UNL     1     -45.784  -9.832 -29.867  0.00  0.00    +0.000 A 
ATOM     19  N   UNL     1     -47.052 -10.176 -29.608  0.00  0.00    +0.000 N 
ATOM     20  C   UNL     1     -47.756  -9.281 -30.353  0.00  0.00    +0.000 A 
ATOM     21  N   UNL     1     -46.977  -8.415 -31.056  0.00  0.00    +0.000 NA
ATOM     22  C   UNL     1     -45.735  -8.785 -30.715  0.00  0.00    +0.000 A 
ATOM     23  H   UNL     1     -47.389 -10.894 -29.026  0.00  0.00    +0.000 HD
ENDROOT
BRANCH   7  24
ATOM     24  C   UNL     1     -44.036  -2.803 -33.205  0.00  0.00    +0.000 A 
ATOM     25  C   UNL     1     -44.306  -1.477 -33.563  0.00  0.00    +0.000 A 
ATOM     26  C   UNL     1     -43.423  -0.454 -33.203  0.00  0.00    +0.000 A 
ATOM     27  C   UNL     1     -42.265  -0.753 -32.480  0.00  0.00    +0.000 A 
ATOM     28  F   UNL     1     -41.411   0.238 -32.132  0.00  0.00    +0.000 F 
ATOM     29  C   UNL     1     -41.990  -2.074 -32.115  0.00  0.00    +0.000 A 
ATOM     30  C   UNL     1     -42.872  -3.096 -32.476  0.00  0.00    +0.000 A 
ENDBRANCH   7  24
TORSDOF 1
ENDMDL
MODEL 2
REMARK VINA RESULT:      -6.9      2.739      3.280
REMARK  Name = ZINC000031810754
REMARK  1 active torsions:
REMARK  status: ('A' for Active; 'I' for Inactive)
REMARK    1  A    between atoms: C_7  and  C_24
REMARK                            x       y       z     vdW  Elec       q    Type
REMARK                         _______ _______ _______ _____ _____    ______ ____
ROOT
ATOM      1  C   UNL     1     -47.399  -4.484 -34.472  0.00  0.00    +0.000 C 
ATOM      2  C   UNL     1     -46.656  -5.628 -33.877  0.00  0.00    +0.000 A 
ATOM      3  N   UNL     1     -46.540  -6.827 -34.475  0.00  0.00    +0.000 NA
ATOM      4  N   UNL     1     -45.816  -7.601 -33.683  0.00  0.00    +0.000 N 
ATOM      5  C   UNL     1     -45.434  -6.905 -32.588  0.00  0.00    +0.000 A 
ATOM      6  C   UNL     1     -45.978  -5.624 -32.669  0.00  0.00    +0.000 A 
ATOM      7  C   UNL     1     -45.851  -4.425 -31.771  0.00  0.00    +0.000 C 
ATOM      8  S   UNL     1     -45.680  -4.811 -30.001  0.00  0.00    +0.000 S 
ATOM      9  C   UNL     1     -43.979  -5.390 -30.203  0.00  0.00    +0.000 C 
ATOM     10  C   UNL     1     -43.966  -6.854 -30.435  0.00  0.00    +0.000 C 
ATOM     11  O   UNL     1     -43.360  -7.585 -29.609  0.00  0.00    +0.000 OA
ATOM     12  N   UNL     1     -44.577  -7.463 -31.576  0.00  0.00    +0.000 N 
ATOM     13  H   UNL     1     -44.380  -8.421 -31.688  0.00  0.00    +0.000 HD
ATOM     14  C   UNL     1     -45.468  -8.949 -34.028  0.00  0.00    +0.000 A 
ATOM     15  N   UNL     1     -45.166  -9.268 -35.323  0.00  0.00    +0.000 NA
ATOM     16  C   UNL     1     -44.857 -10.552 -35.692  0.00  0.00    +0.000 A 
ATOM     17  N   UNL     1     -44.859 -11.559 -34.768  0.00  0.00    +0.000 NA
ATOM     18  C   UNL     1     -45.172 -11.248 -33.487  0.00  0.00    +0.000 A 
ATOM     19  N   UNL     1     -45.282 -12.102 -32.463  0.00  0.00    +0.000 N 
ATOM     20  C   UNL     1     -45.674 -11.289 -31.444  0.00  0.00    +0.000 A 
ATOM     21  N   UNL     1     -45.814  -9.984 -31.803  0.00  0.00    +0.000 NA
ATOM     22  C   UNL     1     -45.477  -9.992 -33.100  0.00  0.00    +0.000 A 
ATOM     23  H   UNL     1     -45.119 -13.072 -32.449  0.00  0.00    +0.000 HD
ENDROOT
BRANCH   7  24
ATOM     24  C   UNL     1     -44.896  -3.372 -32.259  0.00  0.00    +0.000 A 
ATOM     25  C   UNL     1     -45.000  -2.071 -31.752  0.00  0.00    +0.000 A 
ATOM     26  C   UNL     1     -44.118  -1.074 -32.180  0.00  0.00    +0.000 A 
ATOM     27  C   UNL     1     -43.125  -1.374 -33.116  0.00  0.00    +0.000 A 
ATOM     28  F   UNL     1     -42.272  -0.407 -33.530  0.00  0.00    +0.000 F 
ATOM     29  C   UNL     1     -43.011  -2.671 -33.624  0.00  0.00    +0.000 A 
ATOM     30  C   UNL     1     -43.893  -3.668 -33.197  0.00  0.00    +0.000 A 
ENDBRANCH   7  24
TORSDOF 1
ENDMDL
MODEL 3
REMARK VINA RESULT:      -6.8      4.269      7.386
REMARK  Name = ZINC000031810754
REMARK  1 active torsions:
REMARK  status: ('A' for Active; 'I' for Inactive)
REMARK    1  A    between atoms: C_7  and  C_24
REMARK                            x       y       z     vdW  Elec       q    Type
REMARK                         _______ _______ _______ _____ _____    ______ ____
ROOT
ATOM      1  C   UNL     1     -47.500  -4.330 -26.347  0.00  0.00    +0.000 C 
ATOM      2  C   UNL     1     -47.006  -4.603 -27.725  0.00  0.00    +0.000 A 
ATOM      3  N   UNL     1     -46.844  -3.647 -28.657  0.00  0.00    +0.000 NA
ATOM      4  N   UNL     1     -46.387  -4.231 -29.753  0.00  0.00    +0.000 N 
ATOM      5  C   UNL     1     -46.221  -5.555 -29.531  0.00  0.00    +0.000 A 
ATOM      6  C   UNL     1     -46.632  -5.838 -28.229  0.00  0.00    +0.000 A 
ATOM      7  C   UNL     1     -46.629  -7.114 -27.435  0.00  0.00    +0.000 C 
ATOM      8  S   UNL     1     -46.907  -8.623 -28.413  0.00  0.00    +0.000 S 
ATOM      9  C   UNL     1     -45.255  -8.558 -29.145  0.00  0.00    +0.000 C 
ATOM     10  C   UNL     1     -45.299  -7.821 -30.430  0.00  0.00    +0.000 C 
ATOM     11  O   UNL     1     -44.962  -8.427 -31.480  0.00  0.00    +0.000 OA
ATOM     12  N   UNL     1     -45.670  -6.442 -30.520  0.00  0.00    +0.000 N 
ATOM     13  H   UNL     1     -45.525  -6.033 -31.404  0.00  0.00    +0.000 HD
ATOM     14  C   UNL     1     -46.071  -3.497 -30.944  0.00  0.00    +0.000 A 
ATOM     15  N   UNL     1     -45.499  -2.258 -30.854  0.00  0.00    +0.000 NA
ATOM     16  C   UNL     1     -45.210  -1.518 -31.971  0.00  0.00    +0.000 A 
ATOM     17  N   UNL     1     -45.506  -1.998 -33.217  0.00  0.00    +0.000 NA
ATOM     18  C   UNL     1     -46.086  -3.219 -33.308  0.00  0.00    +0.000 A 
ATOM     19  N   UNL     1     -46.497  -3.825 -34.428  0.00  0.00    +0.000 N 
ATOM     20  C   UNL     1     -47.055  -4.972 -33.953  0.00  0.00    +0.000 A 
ATOM     21  N   UNL     1     -47.006  -5.088 -32.598  0.00  0.00    +0.000 NA
ATOM     22  C   UNL     1     -46.377  -3.966 -32.223  0.00  0.00    +0.000 A 
ATOM     23  H   UNL     1     -46.416  -3.519 -35.360  0.00  0.00    +0.000 HD
ENDROOT
BRANCH   7  24
ATOM     24  C   UNL     1     -45.508  -7.232 -26.440  0.00  0.00    +0.000 A 
ATOM     25  C   UNL     1     -45.789  -7.708 -25.153  0.00  0.00    +0.000 A 
ATOM     26  C   UNL     1     -44.765  -7.838 -24.210  0.00  0.00    +0.000 A 
ATOM     27  C   UNL     1     -43.454  -7.496 -24.550  0.00  0.00    +0.000 A 
ATOM     28  F   UNL     1     -42.463  -7.623 -23.636  0.00  0.00    +0.000 F 
ATOM     29  C   UNL     1     -43.164  -7.024 -25.834  0.00  0.00    +0.000 A 
ATOM     30  C   UNL     1     -44.188  -6.893 -26.776  0.00  0.00    +0.000 A 
ENDBRANCH   7  24
TORSDOF 1
ENDMDL
