MODEL 1
REMARK VINA RESULT:      -6.5      0.000      0.000
REMARK  Name = ZINC000002099315 CSCC[C@H](NC(=O)Cc1c(C)c2cc3c(C)coc3cc2oc1=O)C(O)=O MCULE-8114226211 MolPort-002-520-341 PubChem-1755356
REMARK  7 active torsions:
REMARK  status: ('A' for Active; 'I' for Inactive)
REMARK    1  A    between atoms: CG_2  and  CB_3
REMARK    2  A    between atoms: CG_2  and  SD_21
REMARK    3  A    between atoms: CB_3  and  CA_4
REMARK    4  A    between atoms: CA_4  and  C_20
REMARK    5  A    between atoms: CA_4  and  N_22
REMARK    6  A    between atoms: C_5  and  C_6
REMARK    7  A    between atoms: C_6  and  C_7
REMARK                            x       y       z     vdW  Elec       q    Type
REMARK                         _______ _______ _______ _____ _____    ______ ____
ROOT
ATOM      1  C   UNK A   0     -47.082  -5.526 -28.313  0.00  0.00    +0.000 A 
ATOM      2  C   UNK A   0     -46.859  -5.754 -26.943  0.00  0.00    +0.000 A 
ATOM      3  C   UNK A   0     -46.453  -7.112 -26.457  0.00  0.00    +0.000 C 
ATOM      4  C   UNK A   0     -47.016  -4.690 -26.040  0.00  0.00    +0.000 A 
ATOM      5  C   UNK A   0     -46.808  -4.859 -24.654  0.00  0.00    +0.000 A 
ATOM      6  C   UNK A   0     -46.989  -3.748 -23.835  0.00  0.00    +0.000 A 
ATOM      7  C   UNK A   0     -47.355  -2.528 -24.328  0.00  0.00    +0.000 A 
ATOM      8  C   UNK A   0     -47.169  -2.255 -22.215  0.00  0.00    +0.000 A 
ATOM      9  C   UNK A   0     -46.866  -3.587 -22.477  0.00  0.00    +0.000 A 
ATOM     10  C   UNK A   0     -46.485  -4.621 -21.477  0.00  0.00    +0.000 C 
ATOM     11  C   UNK A   0     -47.570  -2.320 -25.687  0.00  0.00    +0.000 A 
ATOM     12  C   UNK A   0     -47.399  -3.415 -26.553  0.00  0.00    +0.000 A 
ATOM     13  C   UNK A   0     -47.458  -4.238 -28.735  0.00  0.00    +0.000 A 
ATOM     14  O   UNK A   0     -47.458  -1.652 -23.357  0.00  0.00    +0.000 OA
ATOM     15  O   UNK A   0     -47.598  -3.252 -27.855  0.00  0.00    +0.000 OA
ATOM     16  O   UNK A   0     -47.666  -4.004 -29.956  0.00  0.00    +0.000 OA
ENDROOT
BRANCH   1  17
ATOM     17  C   UNK A   0     -46.954  -6.640 -29.312  0.00  0.00    +0.000 C 
BRANCH  17  18
ATOM     18  C   UNK A   0     -45.954  -6.288 -30.361  0.00  0.00    +0.000 C 
ATOM     19  N   MET A   1     -44.689  -5.750 -29.979  0.00  0.00    +0.000 NA
ATOM     20  O   UNK A   0     -46.225  -6.491 -31.574  0.00  0.00    +0.000 OA
BRANCH  19  21
ATOM     21  CA  MET A   1     -43.662  -5.423 -30.956  0.00  0.00    +0.000 C 
BRANCH  21  22
ATOM     22  C   MET A   1     -42.315  -5.617 -30.348  0.00  0.00    +0.000 C 
ATOM     23  O   MET A   1     -42.186  -5.889 -28.991  0.00  0.00    +0.000 OA
ATOM     24  OXT MET A   1     -41.288  -5.544 -31.070  0.00  0.00    +0.000 OA
ENDBRANCH  21  22
BRANCH  21  25
ATOM     25  CB  MET A   1     -43.819  -3.984 -31.429  0.00  0.00    +0.000 C 
BRANCH  25  26
ATOM     26  CG  MET A   1     -44.167  -3.928 -32.909  0.00  0.00    +0.000 C 
BRANCH  26  28
ATOM     27  CE  MET A   1     -46.638  -3.313 -33.578  0.00  0.00    +0.000 C 
ATOM     28  SD  MET A   1     -45.088  -2.410 -33.308  0.00  0.00    +0.000 S 
ENDBRANCH  26  28
ENDBRANCH  25  26
ENDBRANCH  21  25
ENDBRANCH  19  21
ENDBRANCH  17  18
ENDBRANCH   1  17
TORSDOF 7
ENDMDL
MODEL 2
REMARK VINA RESULT:      -6.1      1.700      2.030
REMARK  Name = ZINC000002099315 CSCC[C@H](NC(=O)Cc1c(C)c2cc3c(C)coc3cc2oc1=O)C(O)=O MCULE-8114226211 MolPort-002-520-341 PubChem-1755356
REMARK  7 active torsions:
REMARK  status: ('A' for Active; 'I' for Inactive)
REMARK    1  A    between atoms: CG_2  and  CB_3
REMARK    2  A    between atoms: CG_2  and  SD_21
REMARK    3  A    between atoms: CB_3  and  CA_4
REMARK    4  A    between atoms: CA_4  and  C_20
REMARK    5  A    between atoms: CA_4  and  N_22
REMARK    6  A    between atoms: C_5  and  C_6
REMARK    7  A    between atoms: C_6  and  C_7
REMARK                            x       y       z     vdW  Elec       q    Type
REMARK                         _______ _______ _______ _____ _____    ______ ____
ROOT
ATOM      1  C   UNK A   0     -46.956  -5.380 -28.150  0.00  0.00    +0.000 A 
ATOM      2  C   UNK A   0     -46.784  -5.626 -26.776  0.00  0.00    +0.000 A 
ATOM      3  C   UNK A   0     -46.375  -6.985 -26.293  0.00  0.00    +0.000 C 
ATOM      4  C   UNK A   0     -46.996  -4.579 -25.865  0.00  0.00    +0.000 A 
ATOM      5  C   UNK A   0     -46.840  -4.765 -24.474  0.00  0.00    +0.000 A 
ATOM      6  C   UNK A   0     -47.072  -3.670 -23.646  0.00  0.00    +0.000 A 
ATOM      7  C   UNK A   0     -47.439  -2.449 -24.136  0.00  0.00    +0.000 A 
ATOM      8  C   UNK A   0     -47.343  -2.205 -22.013  0.00  0.00    +0.000 A 
ATOM      9  C   UNK A   0     -47.007  -3.528 -22.282  0.00  0.00    +0.000 A 
ATOM     10  C   UNK A   0     -46.650  -4.572 -21.283  0.00  0.00    +0.000 C 
ATOM     11  C   UNK A   0     -47.603  -2.223 -25.499  0.00  0.00    +0.000 A 
ATOM     12  C   UNK A   0     -47.379  -3.302 -26.374  0.00  0.00    +0.000 A 
ATOM     13  C   UNK A   0     -47.336  -4.092 -28.568  0.00  0.00    +0.000 A 
ATOM     14  O   UNK A   0     -47.596  -1.590 -23.157  0.00  0.00    +0.000 OA
ATOM     15  O   UNK A   0     -47.528  -3.122 -27.680  0.00  0.00    +0.000 OA
ATOM     16  O   UNK A   0     -47.499  -3.842 -29.793  0.00  0.00    +0.000 OA
ENDROOT
BRANCH   1  17
ATOM     17  C   UNK A   0     -46.769  -6.477 -29.160  0.00  0.00    +0.000 C 
BRANCH  17  18
ATOM     18  C   UNK A   0     -45.424  -6.377 -29.795  0.00  0.00    +0.000 C 
ATOM     19  N   MET A   1     -45.292  -5.767 -31.079  0.00  0.00    +0.000 NA
ATOM     20  O   UNK A   0     -44.411  -6.809 -29.184  0.00  0.00    +0.000 OA
BRANCH  19  21
ATOM     21  CA  MET A   1     -44.001  -5.609 -31.730  0.00  0.00    +0.000 C 
BRANCH  21  22
ATOM     22  C   MET A   1     -43.580  -4.180 -31.663  0.00  0.00    +0.000 C 
ATOM     23  O   MET A   1     -42.251  -3.826 -31.865  0.00  0.00    +0.000 OA
ATOM     24  OXT MET A   1     -44.435  -3.287 -31.431  0.00  0.00    +0.000 OA
ENDBRANCH  21  22
BRANCH  21  25
ATOM     25  CB  MET A   1     -44.080  -6.063 -33.181  0.00  0.00    +0.000 C 
BRANCH  25  26
ATOM     26  CG  MET A   1     -45.517  -6.058 -33.681  0.00  0.00    +0.000 C 
BRANCH  26  28
ATOM     27  CE  MET A   1     -46.631  -8.386 -33.162  0.00  0.00    +0.000 C 
ATOM     28  SD  MET A   1     -45.891  -7.578 -34.608  0.00  0.00    +0.000 S 
ENDBRANCH  26  28
ENDBRANCH  25  26
ENDBRANCH  21  25
ENDBRANCH  19  21
ENDBRANCH  17  18
ENDBRANCH   1  17
TORSDOF 7
ENDMDL
MODEL 3
REMARK VINA RESULT:      -6.1      4.095      7.974
REMARK  Name = ZINC000002099315 CSCC[C@H](NC(=O)Cc1c(C)c2cc3c(C)coc3cc2oc1=O)C(O)=O MCULE-8114226211 MolPort-002-520-341 PubChem-1755356
REMARK  7 active torsions:
REMARK  status: ('A' for Active; 'I' for Inactive)
REMARK    1  A    between atoms: CG_2  and  CB_3
REMARK    2  A    between atoms: CG_2  and  SD_21
REMARK    3  A    between atoms: CB_3  and  CA_4
REMARK    4  A    between atoms: CA_4  and  C_20
REMARK    5  A    between atoms: CA_4  and  N_22
REMARK    6  A    between atoms: C_5  and  C_6
REMARK    7  A    between atoms: C_6  and  C_7
REMARK                            x       y       z     vdW  Elec       q    Type
REMARK                         _______ _______ _______ _____ _____    ______ ____
ROOT
ATOM      1  C   UNK A   0     -44.814  -4.143 -33.521  0.00  0.00    +0.000 A 
ATOM      2  C   UNK A   0     -43.413  -4.184 -33.400  0.00  0.00    +0.000 A 
ATOM      3  C   UNK A   0     -42.684  -5.491 -33.483  0.00  0.00    +0.000 C 
ATOM      4  C   UNK A   0     -42.710  -2.985 -33.206  0.00  0.00    +0.000 A 
ATOM      5  C   UNK A   0     -41.304  -2.964 -33.076  0.00  0.00    +0.000 A 
ATOM      6  C   UNK A   0     -40.693  -1.729 -32.884  0.00  0.00    +0.000 A 
ATOM      7  C   UNK A   0     -41.403  -0.564 -32.820  0.00  0.00    +0.000 A 
ATOM      8  C   UNK A   0     -39.355   0.004 -32.572  0.00  0.00    +0.000 A 
ATOM      9  C   UNK A   0     -39.374  -1.378 -32.726  0.00  0.00    +0.000 A 
ATOM     10  C   UNK A   0     -38.195  -2.286 -32.719  0.00  0.00    +0.000 C 
ATOM     11  C   UNK A   0     -42.788  -0.541 -32.943  0.00  0.00    +0.000 A 
ATOM     12  C   UNK A   0     -43.450  -1.767 -33.138  0.00  0.00    +0.000 A 
ATOM     13  C   UNK A   0     -45.466  -2.899 -33.442  0.00  0.00    +0.000 A 
ATOM     14  O   UNK A   0     -40.598   0.455 -32.635  0.00  0.00    +0.000 OA
ATOM     15  O   UNK A   0     -44.771  -1.781 -33.258  0.00  0.00    +0.000 OA
ATOM     16  O   UNK A   0     -46.721  -2.831 -33.545  0.00  0.00    +0.000 OA
ENDROOT
BRANCH   1  17
ATOM     17  C   UNK A   0     -45.611  -5.403 -33.700  0.00  0.00    +0.000 C 
BRANCH  17  18
ATOM     18  C   UNK A   0     -46.146  -5.872 -32.389  0.00  0.00    +0.000 C 
ATOM     19  N   MET A   1     -45.599  -5.355 -31.177  0.00  0.00    +0.000 NA
ATOM     20  O   UNK A   0     -47.092  -6.703 -32.362  0.00  0.00    +0.000 OA
BRANCH  19  21
ATOM     21  CA  MET A   1     -46.105  -5.748 -29.872  0.00  0.00    +0.000 C 
BRANCH  21  22
ATOM     22  C   MET A   1     -46.814  -4.597 -29.243  0.00  0.00    +0.000 C 
ATOM     23  O   MET A   1     -46.930  -3.387 -29.918  0.00  0.00    +0.000 OA
ATOM     24  OXT MET A   1     -47.319  -4.724 -28.099  0.00  0.00    +0.000 OA
ENDBRANCH  21  22
BRANCH  21  25
ATOM     25  CB  MET A   1     -44.963  -6.210 -28.976  0.00  0.00    +0.000 C 
BRANCH  25  26
ATOM     26  CG  MET A   1     -45.226  -7.604 -28.426  0.00  0.00    +0.000 C 
BRANCH  26  28
ATOM     27  CE  MET A   1     -47.184  -9.112 -27.519  0.00  0.00    +0.000 C 
ATOM     28  SD  MET A   1     -46.782  -8.283 -29.082  0.00  0.00    +0.000 S 
ENDBRANCH  26  28
ENDBRANCH  25  26
ENDBRANCH  21  25
ENDBRANCH  19  21
ENDBRANCH  17  18
ENDBRANCH   1  17
TORSDOF 7
ENDMDL
