MODEL 1
REMARK VINA RESULT:      -7.1      0.000      0.000
REMARK  Name = ZINC000031811413
REMARK  3 active torsions:
REMARK  status: ('A' for Active; 'I' for Inactive)
REMARK    1  A    between atoms: C_1  and  C_27
REMARK    2  A    between atoms: C_24  and  O_33
REMARK    3  A    between atoms: C_29  and  O_30
REMARK                            x       y       z     vdW  Elec       q    Type
REMARK                         _______ _______ _______ _____ _____    ______ ____
ROOT
ATOM      1  C   UNL     1     -44.919 -17.113 -23.402  0.00  0.00    +0.000 C 
ATOM      2  S   UNL     1     -43.450 -17.451 -24.411  0.00  0.00    +0.000 S 
ATOM      3  C   UNL     1     -44.491 -17.475 -25.880  0.00  0.00    +0.000 C 
ATOM      4  C   UNL     1     -44.455 -16.137 -26.515  0.00  0.00    +0.000 C 
ATOM      5  O   UNL     1     -44.044 -16.046 -27.701  0.00  0.00    +0.000 OA
ATOM      6  N   UNL     1     -44.880 -14.951 -25.838  0.00  0.00    +0.000 N 
ATOM      7  C   UNL     1     -45.347 -14.757 -24.490  0.00  0.00    +0.000 A 
ATOM      8  C   UNL     1     -45.304 -15.643 -23.408  0.00  0.00    +0.000 A 
ATOM      9  C   UNL     1     -45.831 -14.886 -22.357  0.00  0.00    +0.000 A 
ATOM     10  C   UNL     1     -46.120 -15.331 -20.965  0.00  0.00    +0.000 C 
ATOM     11  N   UNL     1     -46.120 -13.641 -22.777  0.00  0.00    +0.000 NA
ATOM     12  N   UNL     1     -45.832 -13.570 -24.063  0.00  0.00    +0.000 N 
ATOM     13  H   UNL     1     -44.847 -14.132 -26.383  0.00  0.00    +0.000 HD
ATOM     14  C   UNL     1     -46.002 -12.366 -24.827  0.00  0.00    +0.000 A 
ATOM     15  N   UNL     1     -45.846 -11.148 -24.225  0.00  0.00    +0.000 NA
ATOM     16  C   UNL     1     -46.030  -9.979 -24.918  0.00  0.00    +0.000 A 
ATOM     17  N   UNL     1     -46.392 -10.002 -26.235  0.00  0.00    +0.000 NA
ATOM     18  C   UNL     1     -46.560 -11.209 -26.829  0.00  0.00    +0.000 A 
ATOM     19  N   UNL     1     -46.967 -11.431 -28.085  0.00  0.00    +0.000 N 
ATOM     20  C   UNL     1     -47.028 -12.789 -28.137  0.00  0.00    +0.000 A 
ATOM     21  N   UNL     1     -46.684 -13.403 -26.971  0.00  0.00    +0.000 NA
ATOM     22  C   UNL     1     -46.384 -12.372 -26.168  0.00  0.00    +0.000 A 
ATOM     23  H   UNL     1     -47.169 -10.777 -28.792  0.00  0.00    +0.000 HD
ENDROOT
BRANCH   1  27
ATOM     24  C   UNL     1     -44.362 -18.838 -19.492  0.00  0.00    +0.000 A 
ATOM     25  C   UNL     1     -43.336 -18.102 -20.106  0.00  0.00    +0.000 A 
ATOM     26  C   UNL     1     -43.526 -17.546 -21.373  0.00  0.00    +0.000 A 
ATOM     27  C   UNL     1     -44.741 -17.720 -22.043  0.00  0.00    +0.000 A 
ATOM     28  C   UNL     1     -45.770 -18.452 -21.431  0.00  0.00    +0.000 A 
ATOM     29  C   UNL     1     -45.582 -19.009 -20.164  0.00  0.00    +0.000 A 
BRANCH  29  30
ATOM     30  O   UNL     1     -46.610 -19.733 -19.574  0.00  0.00    +0.000 OA
ATOM     31  H   UNL     1     -46.824 -19.593 -18.672  0.00  0.00    +0.000 HD
ENDBRANCH  29  30
BRANCH  24  33
ATOM     32  C   UNL     1     -42.915 -19.588 -17.628  0.00  0.00    +0.000 C 
ATOM     33  O   UNL     1     -44.192 -19.404 -18.224  0.00  0.00    +0.000 OA
ENDBRANCH  24  33
ENDBRANCH   1  27
TORSDOF 3
ENDMDL
MODEL 2
REMARK VINA RESULT:      -6.8      7.721     12.951
REMARK  Name = ZINC000031811413
REMARK  3 active torsions:
REMARK  status: ('A' for Active; 'I' for Inactive)
REMARK    1  A    between atoms: C_1  and  C_27
REMARK    2  A    between atoms: C_24  and  O_33
REMARK    3  A    between atoms: C_29  and  O_30
REMARK                            x       y       z     vdW  Elec       q    Type
REMARK                         _______ _______ _______ _____ _____    ______ ____
ROOT
ATOM      1  C   UNL     1     -45.201  -7.688 -32.952  0.00  0.00    +0.000 C 
ATOM      2  S   UNL     1     -46.280  -8.487 -34.171  0.00  0.00    +0.000 S 
ATOM      3  C   UNL     1     -45.217  -9.940 -34.127  0.00  0.00    +0.000 C 
ATOM      4  C   UNL     1     -45.786 -10.923 -33.176  0.00  0.00    +0.000 C 
ATOM      5  O   UNL     1     -46.095 -12.065 -33.605  0.00  0.00    +0.000 OA
ATOM      6  N   UNL     1     -45.987 -10.627 -31.790  0.00  0.00    +0.000 N 
ATOM      7  C   UNL     1     -45.767  -9.413 -31.049  0.00  0.00    +0.000 A 
ATOM      8  C   UNL     1     -45.504  -8.125 -31.529  0.00  0.00    +0.000 A 
ATOM      9  C   UNL     1     -45.455  -7.355 -30.362  0.00  0.00    +0.000 A 
ATOM     10  C   UNL     1     -45.117  -5.911 -30.233  0.00  0.00    +0.000 C 
ATOM     11  N   UNL     1     -45.712  -8.122 -29.287  0.00  0.00    +0.000 NA
ATOM     12  N   UNL     1     -45.893  -9.361 -29.705  0.00  0.00    +0.000 N 
ATOM     13  H   UNL     1     -46.332 -11.379 -31.256  0.00  0.00    +0.000 HD
ATOM     14  C   UNL     1     -46.209 -10.439 -28.812  0.00  0.00    +0.000 A 
ATOM     15  N   UNL     1     -46.935 -10.197 -27.679  0.00  0.00    +0.000 NA
ATOM     16  C   UNL     1     -47.229 -11.198 -26.788  0.00  0.00    +0.000 A 
ATOM     17  N   UNL     1     -46.785 -12.472 -27.006  0.00  0.00    +0.000 NA
ATOM     18  C   UNL     1     -46.053 -12.711 -28.121  0.00  0.00    +0.000 A 
ATOM     19  N   UNL     1     -45.488 -13.872 -28.471  0.00  0.00    +0.000 N 
ATOM     20  C   UNL     1     -44.829 -13.544 -29.616  0.00  0.00    +0.000 A 
ATOM     21  N   UNL     1     -44.963 -12.237 -29.975  0.00  0.00    +0.000 NA
ATOM     22  C   UNL     1     -45.753 -11.742 -29.012  0.00  0.00    +0.000 A 
ATOM     23  H   UNL     1     -45.536 -14.743 -28.016  0.00  0.00    +0.000 HD
ENDROOT
BRANCH   1  27
ATOM     24  C   UNL     1     -45.169  -3.427 -33.601  0.00  0.00    +0.000 A 
ATOM     25  C   UNL     1     -43.970  -4.135 -33.414  0.00  0.00    +0.000 A 
ATOM     26  C   UNL     1     -43.990  -5.516 -33.205  0.00  0.00    +0.000 A 
ATOM     27  C   UNL     1     -45.206  -6.205 -33.178  0.00  0.00    +0.000 A 
ATOM     28  C   UNL     1     -46.405  -5.502 -33.367  0.00  0.00    +0.000 A 
ATOM     29  C   UNL     1     -46.388  -4.121 -33.577  0.00  0.00    +0.000 A 
BRANCH  29  30
ATOM     30  O   UNL     1     -47.584  -3.440 -33.760  0.00  0.00    +0.000 OA
ATOM     31  H   UNL     1     -48.140  -3.262 -33.026  0.00  0.00    +0.000 HD
ENDBRANCH  29  30
BRANCH  24  33
ATOM     32  C   UNL     1     -44.387  -1.147 -33.035  0.00  0.00    +0.000 C 
ATOM     33  O   UNL     1     -45.171  -2.044 -33.810  0.00  0.00    +0.000 OA
ENDBRANCH  24  33
ENDBRANCH   1  27
TORSDOF 3
ENDMDL
MODEL 3
REMARK VINA RESULT:      -6.8      8.370     12.186
REMARK  Name = ZINC000031811413
REMARK  3 active torsions:
REMARK  status: ('A' for Active; 'I' for Inactive)
REMARK    1  A    between atoms: C_1  and  C_27
REMARK    2  A    between atoms: C_24  and  O_33
REMARK    3  A    between atoms: C_29  and  O_30
REMARK                            x       y       z     vdW  Elec       q    Type
REMARK                         _______ _______ _______ _____ _____    ______ ____
ROOT
ATOM      1  C   UNL     1     -46.344  -6.033 -29.253  0.00  0.00    +0.000 C 
ATOM      2  S   UNL     1     -47.483  -6.333 -30.633  0.00  0.00    +0.000 S 
ATOM      3  C   UNL     1     -47.631  -4.554 -30.869  0.00  0.00    +0.000 C 
ATOM      4  C   UNL     1     -46.679  -4.129 -31.921  0.00  0.00    +0.000 C 
ATOM      5  O   UNL     1     -47.134  -3.565 -32.951  0.00  0.00    +0.000 OA
ATOM      6  N   UNL     1     -45.266  -4.323 -31.807  0.00  0.00    +0.000 N 
ATOM      7  C   UNL     1     -44.488  -4.964 -30.780  0.00  0.00    +0.000 A 
ATOM      8  C   UNL     1     -44.923  -5.767 -29.719  0.00  0.00    +0.000 A 
ATOM      9  C   UNL     1     -43.727  -6.156 -29.106  0.00  0.00    +0.000 A 
ATOM     10  C   UNL     1     -43.557  -6.951 -27.858  0.00  0.00    +0.000 C 
ATOM     11  N   UNL     1     -42.674  -5.658 -29.778  0.00  0.00    +0.000 NA
ATOM     12  N   UNL     1     -43.137  -4.937 -30.782  0.00  0.00    +0.000 N 
ATOM     13  H   UNL     1     -44.740  -3.958 -32.555  0.00  0.00    +0.000 HD
ATOM     14  C   UNL     1     -42.275  -4.276 -31.720  0.00  0.00    +0.000 A 
ATOM     15  N   UNL     1     -41.060  -4.820 -32.032  0.00  0.00    +0.000 NA
ATOM     16  C   UNL     1     -40.199  -4.200 -32.901  0.00  0.00    +0.000 A 
ATOM     17  N   UNL     1     -40.531  -3.002 -33.470  0.00  0.00    +0.000 NA
ATOM     18  C   UNL     1     -41.729  -2.455 -33.151  0.00  0.00    +0.000 A 
ATOM     19  N   UNL     1     -42.200  -1.271 -33.560  0.00  0.00    +0.000 N 
ATOM     20  C   UNL     1     -43.388  -1.185 -32.903  0.00  0.00    +0.000 A 
ATOM     21  N   UNL     1     -43.660  -2.259 -32.110  0.00  0.00    +0.000 NA
ATOM     22  C   UNL     1     -42.592  -3.048 -32.300  0.00  0.00    +0.000 A 
ATOM     23  H   UNL     1     -41.790  -0.625 -34.180  0.00  0.00    +0.000 HD
ENDROOT
BRANCH   1  27
ATOM     24  C   UNL     1     -46.754  -9.155 -26.310  0.00  0.00    +0.000 A 
ATOM     25  C   UNL     1     -46.573  -7.818 -25.920  0.00  0.00    +0.000 A 
ATOM     26  C   UNL     1     -46.442  -6.813 -26.881  0.00  0.00    +0.000 A 
ATOM     27  C   UNL     1     -46.488  -7.130 -28.242  0.00  0.00    +0.000 A 
ATOM     28  C   UNL     1     -46.672  -8.465 -28.635  0.00  0.00    +0.000 A 
ATOM     29  C   UNL     1     -46.803  -9.472 -27.676  0.00  0.00    +0.000 A 
BRANCH  29  30
ATOM     30  O   UNL     1     -46.983 -10.787 -28.083  0.00  0.00    +0.000 OA
ATOM     31  H   UNL     1     -46.937 -11.006 -28.994  0.00  0.00    +0.000 HD
ENDBRANCH  29  30
BRANCH  24  33
ATOM     32  C   UNL     1     -45.796 -10.650 -24.585  0.00  0.00    +0.000 C 
ATOM     33  O   UNL     1     -46.886 -10.177 -25.364  0.00  0.00    +0.000 OA
ENDBRANCH  24  33
ENDBRANCH   1  27
TORSDOF 3
ENDMDL
