MODEL 1
REMARK VINA RESULT:      -6.2      0.000      0.000
REMARK  Name = ZINC000021523792 ZINC21523792
REMARK  6 active torsions:
REMARK  status: ('A' for Active; 'I' for Inactive)
REMARK    1  A    between atoms: C_1  and  C_24
REMARK    2  A    between atoms: C_22  and  O_28
REMARK    3  A    between atoms: C_27  and  O_31
REMARK    4  A    between atoms: O_28  and  C_30
REMARK    5  A    between atoms: O_31  and  C_32
REMARK    6  A    between atoms: C_32  and  C_33
REMARK                            x       y       z     vdW  Elec       q    Type
REMARK                         _______ _______ _______ _____ _____    ______ ____
ROOT
ATOM      1  C   UNL     1     -44.756 -15.930 -26.438  0.00  0.00    +0.000 C 
ATOM      2  C   UNL     1     -45.163 -15.521 -25.030  0.00  0.00    +0.000 A 
ATOM      3  C   UNL     1     -45.741 -14.308 -24.649  0.00  0.00    +0.000 A 
ATOM      4  N   UNL     1     -46.029 -14.314 -23.336  0.00  0.00    +0.000 NA
ATOM      5  N   UNL     1     -45.679 -15.492 -22.849  0.00  0.00    +0.000 N 
ATOM      6  C   UNL     1     -45.182 -16.265 -23.843  0.00  0.00    +0.000 A 
ATOM      7  N   UNL     1     -44.830 -17.645 -23.632  0.00  0.00    +0.000 N 
ATOM      8  C   UNL     1     -44.595 -18.688 -24.581  0.00  0.00    +0.000 C 
ATOM      9  O   UNL     1     -44.304 -19.839 -24.164  0.00  0.00    +0.000 OA
ATOM     10  C   UNL     1     -44.683 -18.461 -26.041  0.00  0.00    +0.000 C 
ATOM     11  S   UNL     1     -43.467 -17.210 -26.483  0.00  0.00    +0.000 S 
ATOM     12  C   UNL     1     -46.087 -13.155 -25.529  0.00  0.00    +0.000 C 
ATOM     13  H   UNL     1     -44.736 -17.911 -22.689  0.00  0.00    +0.000 HD
ATOM     14  C   UNL     1     -45.866 -15.846 -21.469  0.00  0.00    +0.000 A 
ATOM     15  N   UNL     1     -46.595 -15.033 -20.657  0.00  0.00    +0.000 NA
ATOM     16  C   UNL     1     -46.785 -15.336 -19.346  0.00  0.00    +0.000 A 
ATOM     17  C   UNL     1     -46.225 -16.495 -18.811  0.00  0.00    +0.000 A 
ATOM     18  C   UNL     1     -45.480 -17.317 -19.653  0.00  0.00    +0.000 A 
ATOM     19  N   UNL     1     -45.313 -16.980 -20.958  0.00  0.00    +0.000 NA
ATOM     20  C   UNL     1     -44.865 -18.561 -19.123  0.00  0.00    +0.000 C 
ATOM     21  C   UNL     1     -47.585 -14.430 -18.481  0.00  0.00    +0.000 C 
ENDROOT
BRANCH   1  24
ATOM     22  C   UNL     1     -44.786 -13.262 -29.140  0.00  0.00    +0.000 A 
ATOM     23  C   UNL     1     -45.159 -14.327 -28.312  0.00  0.00    +0.000 A 
ATOM     24  C   UNL     1     -44.314 -14.783 -27.297  0.00  0.00    +0.000 A 
ATOM     25  C   UNL     1     -43.068 -14.175 -27.111  0.00  0.00    +0.000 A 
ATOM     26  C   UNL     1     -42.680 -13.114 -27.927  0.00  0.00    +0.000 A 
ATOM     27  C   UNL     1     -43.527 -12.640 -28.943  0.00  0.00    +0.000 A 
BRANCH  22  28
ATOM     28  O   UNL     1     -45.703 -12.870 -30.126  0.00  0.00    +0.000 OA
BRANCH  28  30
ATOM     29  C   UNL     1     -46.724 -10.710 -29.932  0.00  0.00    +0.000 C 
ATOM     30  C   UNL     1     -46.935 -12.207 -29.873  0.00  0.00    +0.000 C 
ENDBRANCH  28  30
ENDBRANCH  22  28
BRANCH  27  31
ATOM     31  O   UNL     1     -43.124 -11.571 -29.755  0.00  0.00    +0.000 OA
BRANCH  31  32
ATOM     32  C   UNL     1     -42.074 -11.661 -30.712  0.00  0.00    +0.000 C 
BRANCH  32  33
ATOM     33  C   UNL     1     -42.620 -11.514 -32.092  0.00  0.00    +0.000 C 
ATOM     34  O   UNL     1     -41.861 -11.176 -33.036  0.00  0.00    +0.000 OA
ATOM     35  N   UNL     1     -44.004 -11.733 -32.335  0.00  0.00    +0.000 N 
ATOM     36  H   UNL     1     -44.598 -11.997 -31.597  0.00  0.00    +0.000 HD
ATOM     37  H   UNL     1     -44.366 -11.619 -33.243  0.00  0.00    +0.000 HD
ENDBRANCH  32  33
ENDBRANCH  31  32
ENDBRANCH  27  31
ENDBRANCH   1  24
TORSDOF 6
ENDMDL
MODEL 2
REMARK VINA RESULT:      -6.1      4.385      6.316
REMARK  Name = ZINC000021523792 ZINC21523792
REMARK  6 active torsions:
REMARK  status: ('A' for Active; 'I' for Inactive)
REMARK    1  A    between atoms: C_1  and  C_24
REMARK    2  A    between atoms: C_22  and  O_28
REMARK    3  A    between atoms: C_27  and  O_31
REMARK    4  A    between atoms: O_28  and  C_30
REMARK    5  A    between atoms: O_31  and  C_32
REMARK    6  A    between atoms: C_32  and  C_33
REMARK                            x       y       z     vdW  Elec       q    Type
REMARK                         _______ _______ _______ _____ _____    ______ ____
ROOT
ATOM      1  C   UNL     1     -46.111 -10.572 -28.935  0.00  0.00    +0.000 C 
ATOM      2  C   UNL     1     -46.127 -11.061 -27.495  0.00  0.00    +0.000 A 
ATOM      3  C   UNL     1     -46.788 -10.465 -26.419  0.00  0.00    +0.000 A 
ATOM      4  N   UNL     1     -46.638 -11.202 -25.305  0.00  0.00    +0.000 NA
ATOM      5  N   UNL     1     -45.920 -12.267 -25.617  0.00  0.00    +0.000 N 
ATOM      6  C   UNL     1     -45.617 -12.241 -26.935  0.00  0.00    +0.000 A 
ATOM      7  N   UNL     1     -44.944 -13.335 -27.585  0.00  0.00    +0.000 N 
ATOM      8  C   UNL     1     -44.814 -13.638 -28.976  0.00  0.00    +0.000 C 
ATOM      9  O   UNL     1     -44.179 -14.667 -29.321  0.00  0.00    +0.000 OA
ATOM     10  C   UNL     1     -45.404 -12.780 -30.028  0.00  0.00    +0.000 C 
ATOM     11  S   UNL     1     -44.672 -11.142 -29.886  0.00  0.00    +0.000 S 
ATOM     12  C   UNL     1     -47.622  -9.228 -26.442  0.00  0.00    +0.000 C 
ATOM     13  H   UNL     1     -44.505 -13.972 -26.977  0.00  0.00    +0.000 HD
ATOM     14  C   UNL     1     -45.585 -13.282 -24.657  0.00  0.00    +0.000 A 
ATOM     15  N   UNL     1     -46.169 -13.268 -23.427  0.00  0.00    +0.000 NA
ATOM     16  C   UNL     1     -45.868 -14.210 -22.496  0.00  0.00    +0.000 A 
ATOM     17  C   UNL     1     -44.944 -15.212 -22.791  0.00  0.00    +0.000 A 
ATOM     18  C   UNL     1     -44.353 -15.213 -24.052  0.00  0.00    +0.000 A 
ATOM     19  N   UNL     1     -44.680 -14.255 -24.957  0.00  0.00    +0.000 NA
ATOM     20  C   UNL     1     -43.363 -16.263 -24.407  0.00  0.00    +0.000 C 
ATOM     21  C   UNL     1     -46.520 -14.170 -21.161  0.00  0.00    +0.000 C 
ENDROOT
BRANCH   1  24
ATOM     22  C   UNL     1     -45.236  -6.887 -28.651  0.00  0.00    +0.000 A 
ATOM     23  C   UNL     1     -45.186  -8.283 -28.550  0.00  0.00    +0.000 A 
ATOM     24  C   UNL     1     -46.207  -9.082 -29.070  0.00  0.00    +0.000 A 
ATOM     25  C   UNL     1     -47.307  -8.479 -29.690  0.00  0.00    +0.000 A 
ATOM     26  C   UNL     1     -47.374  -7.091 -29.798  0.00  0.00    +0.000 A 
ATOM     27  C   UNL     1     -46.347  -6.279 -29.288  0.00  0.00    +0.000 A 
BRANCH  22  28
ATOM     28  O   UNL     1     -44.161  -6.171 -28.106  0.00  0.00    +0.000 OA
BRANCH  28  30
ATOM     29  C   UNL     1     -42.009  -6.520 -27.110  0.00  0.00    +0.000 C 
ATOM     30  C   UNL     1     -42.792  -6.411 -28.400  0.00  0.00    +0.000 C 
ENDBRANCH  28  30
ENDBRANCH  22  28
BRANCH  27  31
ATOM     31  O   UNL     1     -46.427  -4.885 -29.406  0.00  0.00    +0.000 OA
BRANCH  31  32
ATOM     32  C   UNL     1     -46.664  -4.210 -30.637  0.00  0.00    +0.000 C 
BRANCH  32  33
ATOM     33  C   UNL     1     -45.548  -3.267 -30.932  0.00  0.00    +0.000 C 
ATOM     34  O   UNL     1     -45.716  -2.029 -30.788  0.00  0.00    +0.000 OA
ATOM     35  N   UNL     1     -44.301  -3.765 -31.400  0.00  0.00    +0.000 N 
ATOM     36  H   UNL     1     -44.169  -4.734 -31.513  0.00  0.00    +0.000 HD
ATOM     37  H   UNL     1     -43.570  -3.140 -31.610  0.00  0.00    +0.000 HD
ENDBRANCH  32  33
ENDBRANCH  31  32
ENDBRANCH  27  31
ENDBRANCH   1  24
TORSDOF 6
ENDMDL
MODEL 3
REMARK VINA RESULT:      -5.9      7.127      9.555
REMARK  Name = ZINC000021523792 ZINC21523792
REMARK  6 active torsions:
REMARK  status: ('A' for Active; 'I' for Inactive)
REMARK    1  A    between atoms: C_1  and  C_24
REMARK    2  A    between atoms: C_22  and  O_28
REMARK    3  A    between atoms: C_27  and  O_31
REMARK    4  A    between atoms: O_28  and  C_30
REMARK    5  A    between atoms: O_31  and  C_32
REMARK    6  A    between atoms: C_32  and  C_33
REMARK                            x       y       z     vdW  Elec       q    Type
REMARK                         _______ _______ _______ _____ _____    ______ ____
ROOT
ATOM      1  C   UNL     1     -46.072  -7.557 -29.914  0.00  0.00    +0.000 C 
ATOM      2  C   UNL     1     -46.228  -6.741 -28.639  0.00  0.00    +0.000 A 
ATOM      3  C   UNL     1     -46.320  -5.351 -28.545  0.00  0.00    +0.000 A 
ATOM      4  N   UNL     1     -46.515  -4.976 -27.269  0.00  0.00    +0.000 NA
ATOM      5  N   UNL     1     -46.574  -6.069 -26.529  0.00  0.00    +0.000 N 
ATOM      6  C   UNL     1     -46.439  -7.160 -27.318  0.00  0.00    +0.000 A 
ATOM      7  N   UNL     1     -46.583  -8.497 -26.804  0.00  0.00    +0.000 N 
ATOM      8  C   UNL     1     -46.785  -9.731 -27.496  0.00  0.00    +0.000 C 
ATOM      9  O   UNL     1     -46.894 -10.794 -26.832  0.00  0.00    +0.000 OA
ATOM     10  C   UNL     1     -46.872  -9.803 -28.971  0.00  0.00    +0.000 C 
ATOM     11  S   UNL     1     -45.322  -9.190 -29.650  0.00  0.00    +0.000 S 
ATOM     12  C   UNL     1     -46.288  -4.364 -29.663  0.00  0.00    +0.000 C 
ATOM     13  H   UNL     1     -46.534  -8.572 -25.823  0.00  0.00    +0.000 HD
ATOM     14  C   UNL     1     -46.793  -6.032 -25.109  0.00  0.00    +0.000 A 
ATOM     15  N   UNL     1     -47.142  -4.861 -24.511  0.00  0.00    +0.000 NA
ATOM     16  C   UNL     1     -47.350  -4.791 -23.170  0.00  0.00    +0.000 A 
ATOM     17  C   UNL     1     -47.204  -5.932 -22.382  0.00  0.00    +0.000 A 
ATOM     18  C   UNL     1     -46.845  -7.124 -23.008  0.00  0.00    +0.000 A 
ATOM     19  N   UNL     1     -46.646  -7.153 -24.351  0.00  0.00    +0.000 NA
ATOM     20  C   UNL     1     -46.678  -8.363 -22.205  0.00  0.00    +0.000 C 
ATOM     21  C   UNL     1     -47.729  -3.499 -22.542  0.00  0.00    +0.000 C 
ENDROOT
BRANCH   1  24
ATOM     22  C   UNL     1     -45.317  -5.698 -33.138  0.00  0.00    +0.000 A 
ATOM     23  C   UNL     1     -45.993  -6.360 -32.106  0.00  0.00    +0.000 A 
ATOM     24  C   UNL     1     -45.306  -6.852 -30.993  0.00  0.00    +0.000 A 
ATOM     25  C   UNL     1     -43.918  -6.695 -30.913  0.00  0.00    +0.000 A 
ATOM     26  C   UNL     1     -43.230  -6.039 -31.932  0.00  0.00    +0.000 A 
ATOM     27  C   UNL     1     -43.912  -5.531 -33.050  0.00  0.00    +0.000 A 
BRANCH  22  28
ATOM     28  O   UNL     1     -46.092  -5.233 -34.211  0.00  0.00    +0.000 OA
BRANCH  28  30
ATOM     29  C   UNL     1     -46.710  -3.023 -33.516  0.00  0.00    +0.000 C 
ATOM     30  C   UNL     1     -47.190  -4.338 -34.091  0.00  0.00    +0.000 C 
ENDBRANCH  28  30
ENDBRANCH  22  28
BRANCH  27  31
ATOM     31  O   UNL     1     -43.206  -4.873 -34.067  0.00  0.00    +0.000 OA
BRANCH  31  32
ATOM     32  C   UNL     1     -42.866  -3.491 -34.022  0.00  0.00    +0.000 C 
BRANCH  32  33
ATOM     33  C   UNL     1     -41.461  -3.322 -33.551  0.00  0.00    +0.000 C 
ATOM     34  O   UNL     1     -40.571  -4.126 -33.926  0.00  0.00    +0.000 OA
ATOM     35  N   UNL     1     -41.134  -2.265 -32.656  0.00  0.00    +0.000 N 
ATOM     36  H   UNL     1     -41.831  -1.636 -32.362  0.00  0.00    +0.000 HD
ATOM     37  H   UNL     1     -40.210  -2.165 -32.332  0.00  0.00    +0.000 HD
ENDBRANCH  32  33
ENDBRANCH  31  32
ENDBRANCH  27  31
ENDBRANCH   1  24
TORSDOF 6
ENDMDL
