MODEL 1
REMARK VINA RESULT:      -6.4      0.000      0.000
REMARK  Name = ZINC000033554565 MCULE-1829814183 MolPort-035-945-407
REMARK  7 active torsions:
REMARK  status: ('A' for Active; 'I' for Inactive)
REMARK    1  A    between atoms: C_2  and  C_3
REMARK    2  A    between atoms: C_2  and  N_25
REMARK    3  A    between atoms: C_3  and  C_4
REMARK    4  A    between atoms: C_4  and  O_29
REMARK    5  A    between atoms: C_6  and  C_16
REMARK    6  A    between atoms: C_17  and  N_28
REMARK    7  A    between atoms: C_23  and  O_32
REMARK                            x       y       z     vdW  Elec       q    Type
REMARK                         _______ _______ _______ _____ _____    ______ ____
ROOT
ATOM      1  C   UNL     1     -46.902  -5.301 -27.530  0.00  0.00    +0.000 A 
ATOM      2  C   UNL     1     -46.682  -6.904 -28.941  0.00  0.00    +0.000 A 
ATOM      3  C   UNL     1     -46.538  -7.490 -27.676  0.00  0.00    +0.000 A 
ATOM      4  C   UNL     1     -46.683  -6.426 -26.804  0.00  0.00    +0.000 A 
ATOM      5  C   UNL     1     -46.648  -6.361 -25.416  0.00  0.00    +0.000 A 
ATOM      6  C   UNL     1     -46.804  -5.048 -23.452  0.00  0.00    +0.000 A 
ATOM      7  C   UNL     1     -46.997  -3.825 -22.811  0.00  0.00    +0.000 A 
ATOM      8  C   UNL     1     -47.227  -2.681 -23.571  0.00  0.00    +0.000 A 
ATOM      9  C   UNL     1     -47.262  -2.761 -24.961  0.00  0.00    +0.000 A 
ATOM     10  C   UNL     1     -47.513  -1.523 -25.753  0.00  0.00    +0.000 C 
ATOM     11  C   UNL     1     -47.065  -4.005 -25.586  0.00  0.00    +0.000 A 
ATOM     12  N   UNL     1     -46.899  -5.565 -28.844  0.00  0.00    +0.000 N 
ATOM     13  N   UNL     1     -46.838  -5.140 -24.815  0.00  0.00    +0.000 N 
ATOM     14  N   UNL     1     -47.097  -4.094 -26.951  0.00  0.00    +0.000 NA
ATOM     15  O   UNL     1     -46.444  -7.406 -24.737  0.00  0.00    +0.000 OA
ENDROOT
BRANCH   2  16
ATOM     16  C   UNL     1     -46.619  -7.666 -30.204  0.00  0.00    +0.000 C 
ATOM     17  N   UNL     1     -45.511  -7.506 -31.096  0.00  0.00    +0.000 NA
ATOM     18  O   UNL     1     -47.530  -8.496 -30.472  0.00  0.00    +0.000 OA
BRANCH  17  19
ATOM     19  C   UNL     1     -45.480  -7.937 -32.462  0.00  0.00    +0.000 A 
ATOM     20  C   UNL     1     -44.806  -9.124 -32.767  0.00  0.00    +0.000 A 
ATOM     21  C   UNL     1     -44.735  -9.583 -34.084  0.00  0.00    +0.000 A 
ATOM     22  C   UNL     1     -44.042 -10.862 -34.389  0.00  0.00    +0.000 C 
ATOM     23  C   UNL     1     -45.328  -8.849 -35.112  0.00  0.00    +0.000 A 
ATOM     24  C   UNL     1     -45.979  -7.647 -34.824  0.00  0.00    +0.000 A 
ATOM     25  C   UNL     1     -46.051  -7.171 -33.503  0.00  0.00    +0.000 A 
BRANCH  25  27
ATOM     26  C   UNL     1     -46.971  -4.985 -34.224  0.00  0.00    +0.000 C 
ATOM     27  O   UNL     1     -46.649  -5.938 -33.219  0.00  0.00    +0.000 OA
ENDBRANCH  25  27
ENDBRANCH  17  19
ENDBRANCH   2  16
BRANCH  12  28
ATOM     28  C   UNL     1     -47.175  -4.610 -29.910  0.00  0.00    +0.000 C 
BRANCH  28  29
ATOM     29  C   UNL     1     -45.878  -4.005 -30.411  0.00  0.00    +0.000 C 
BRANCH  29  30
ATOM     30  C   UNL     1     -46.186  -2.857 -31.349  0.00  0.00    +0.000 C 
BRANCH  30  32
ATOM     31  C   UNL     1     -44.692  -1.304 -31.825  0.00  0.00    +0.000 C 
ATOM     32  O   UNL     1     -45.616  -1.685 -30.851  0.00  0.00    +0.000 OA
ENDBRANCH  30  32
ENDBRANCH  29  30
ENDBRANCH  28  29
ENDBRANCH  12  28
TORSDOF 7
ENDMDL
MODEL 2
REMARK VINA RESULT:      -6.3      0.993      2.216
REMARK  Name = ZINC000033554565 MCULE-1829814183 MolPort-035-945-407
REMARK  7 active torsions:
REMARK  status: ('A' for Active; 'I' for Inactive)
REMARK    1  A    between atoms: C_2  and  C_3
REMARK    2  A    between atoms: C_2  and  N_25
REMARK    3  A    between atoms: C_3  and  C_4
REMARK    4  A    between atoms: C_4  and  O_29
REMARK    5  A    between atoms: C_6  and  C_16
REMARK    6  A    between atoms: C_17  and  N_28
REMARK    7  A    between atoms: C_23  and  O_32
REMARK                            x       y       z     vdW  Elec       q    Type
REMARK                         _______ _______ _______ _____ _____    ______ ____
ROOT
ATOM      1  C   UNL     1     -46.923  -5.320 -27.428  0.00  0.00    +0.000 A 
ATOM      2  C   UNL     1     -46.705  -6.958 -28.799  0.00  0.00    +0.000 A 
ATOM      3  C   UNL     1     -46.535  -7.508 -27.521  0.00  0.00    +0.000 A 
ATOM      4  C   UNL     1     -46.681  -6.423 -26.676  0.00  0.00    +0.000 A 
ATOM      5  C   UNL     1     -46.626  -6.320 -25.291  0.00  0.00    +0.000 A 
ATOM      6  C   UNL     1     -46.770  -4.956 -23.360  0.00  0.00    +0.000 A 
ATOM      7  C   UNL     1     -46.968  -3.719 -22.748  0.00  0.00    +0.000 A 
ATOM      8  C   UNL     1     -47.222  -2.599 -23.536  0.00  0.00    +0.000 A 
ATOM      9  C   UNL     1     -47.276  -2.717 -24.922  0.00  0.00    +0.000 A 
ATOM     10  C   UNL     1     -47.553  -1.502 -25.743  0.00  0.00    +0.000 C 
ATOM     11  C   UNL     1     -47.074  -3.974 -25.517  0.00  0.00    +0.000 A 
ATOM     12  N   UNL     1     -46.936  -5.619 -28.734  0.00  0.00    +0.000 N 
ATOM     13  N   UNL     1     -46.822  -5.086 -24.719  0.00  0.00    +0.000 N 
ATOM     14  N   UNL     1     -47.124  -4.100 -26.879  0.00  0.00    +0.000 NA
ATOM     15  O   UNL     1     -46.400  -7.344 -24.586  0.00  0.00    +0.000 OA
ENDROOT
BRANCH   2  16
ATOM     16  C   UNL     1     -46.651  -7.752 -30.042  0.00  0.00    +0.000 C 
ATOM     17  N   UNL     1     -45.482  -7.733 -30.868  0.00  0.00    +0.000 NA
ATOM     18  O   UNL     1     -47.629  -8.486 -30.349  0.00  0.00    +0.000 OA
BRANCH  17  19
ATOM     19  C   UNL     1     -45.418  -8.197 -32.222  0.00  0.00    +0.000 A 
ATOM     20  C   UNL     1     -45.792  -7.316 -33.243  0.00  0.00    +0.000 A 
ATOM     21  C   UNL     1     -45.759  -7.721 -34.578  0.00  0.00    +0.000 A 
ATOM     22  C   UNL     1     -46.130  -6.765 -35.655  0.00  0.00    +0.000 C 
ATOM     23  C   UNL     1     -45.364  -9.019 -34.905  0.00  0.00    +0.000 A 
ATOM     24  C   UNL     1     -45.016  -9.917 -33.893  0.00  0.00    +0.000 A 
ATOM     25  C   UNL     1     -45.052  -9.523 -32.543  0.00  0.00    +0.000 A 
BRANCH  25  27
ATOM     26  C   UNL     1     -45.630 -11.508 -31.176  0.00  0.00    +0.000 C 
ATOM     27  O   UNL     1     -44.763 -10.437 -31.524  0.00  0.00    +0.000 OA
ENDBRANCH  25  27
ENDBRANCH  17  19
ENDBRANCH   2  16
BRANCH  12  28
ATOM     28  C   UNL     1     -47.238  -4.695 -29.821  0.00  0.00    +0.000 C 
BRANCH  28  29
ATOM     29  C   UNL     1     -45.959  -4.067 -30.337  0.00  0.00    +0.000 C 
BRANCH  29  30
ATOM     30  C   UNL     1     -46.049  -3.898 -31.838  0.00  0.00    +0.000 C 
BRANCH  30  32
ATOM     31  C   UNL     1     -47.364  -3.875 -33.611  0.00  0.00    +0.000 C 
ATOM     32  O   UNL     1     -47.324  -4.262 -32.271  0.00  0.00    +0.000 OA
ENDBRANCH  30  32
ENDBRANCH  29  30
ENDBRANCH  28  29
ENDBRANCH  12  28
TORSDOF 7
ENDMDL
MODEL 3
REMARK VINA RESULT:      -6.2     10.562     12.478
REMARK  Name = ZINC000033554565 MCULE-1829814183 MolPort-035-945-407
REMARK  7 active torsions:
REMARK  status: ('A' for Active; 'I' for Inactive)
REMARK    1  A    between atoms: C_2  and  C_3
REMARK    2  A    between atoms: C_2  and  N_25
REMARK    3  A    between atoms: C_3  and  C_4
REMARK    4  A    between atoms: C_4  and  O_29
REMARK    5  A    between atoms: C_6  and  C_16
REMARK    6  A    between atoms: C_17  and  N_28
REMARK    7  A    between atoms: C_23  and  O_32
REMARK                            x       y       z     vdW  Elec       q    Type
REMARK                         _______ _______ _______ _____ _____    ______ ____
ROOT
ATOM      1  C   UNL     1     -45.195 -16.623 -22.864  0.00  0.00    +0.000 A 
ATOM      2  C   UNL     1     -44.599 -18.064 -24.340  0.00  0.00    +0.000 A 
ATOM      3  C   UNL     1     -44.944 -18.807 -23.203  0.00  0.00    +0.000 A 
ATOM      4  C   UNL     1     -45.316 -17.844 -22.283  0.00  0.00    +0.000 A 
ATOM      5  C   UNL     1     -45.765 -17.947 -20.972  0.00  0.00    +0.000 A 
ATOM      6  C   UNL     1     -46.514 -16.864 -19.003  0.00  0.00    +0.000 A 
ATOM      7  C   UNL     1     -46.839 -15.711 -18.289  0.00  0.00    +0.000 A 
ATOM      8  C   UNL     1     -46.714 -14.468 -18.903  0.00  0.00    +0.000 A 
ATOM      9  C   UNL     1     -46.266 -14.379 -20.219  0.00  0.00    +0.000 A 
ATOM     10  C   UNL     1     -46.144 -13.036 -20.855  0.00  0.00    +0.000 C 
ATOM     11  C   UNL     1     -45.944 -15.555 -20.919  0.00  0.00    +0.000 A 
ATOM     12  N   UNL     1     -44.750 -16.729 -24.123  0.00  0.00    +0.000 N 
ATOM     13  N   UNL     1     -46.074 -16.791 -20.294  0.00  0.00    +0.000 N 
ATOM     14  N   UNL     1     -45.502 -15.479 -22.212  0.00  0.00    +0.000 NA
ATOM     15  O   UNL     1     -45.879 -19.080 -20.427  0.00  0.00    +0.000 OA
ENDROOT
BRANCH   2  16
ATOM     16  C   UNL     1     -44.148 -18.674 -25.606  0.00  0.00    +0.000 C 
ATOM     17  N   UNL     1     -42.780 -18.570 -26.018  0.00  0.00    +0.000 NA
ATOM     18  O   UNL     1     -44.969 -19.330 -26.304  0.00  0.00    +0.000 OA
BRANCH  17  19
ATOM     19  C   UNL     1     -42.291 -18.838 -27.338  0.00  0.00    +0.000 A 
ATOM     20  C   UNL     1     -41.838 -20.130 -27.626  0.00  0.00    +0.000 A 
ATOM     21  C   UNL     1     -41.340 -20.442 -28.892  0.00  0.00    +0.000 A 
ATOM     22  C   UNL     1     -40.890 -21.826 -29.195  0.00  0.00    +0.000 C 
ATOM     23  C   UNL     1     -41.279 -19.458 -29.880  0.00  0.00    +0.000 A 
ATOM     24  C   UNL     1     -41.701 -18.157 -29.596  0.00  0.00    +0.000 A 
ATOM     25  C   UNL     1     -42.198 -17.829 -28.322  0.00  0.00    +0.000 A 
BRANCH  25  27
ATOM     26  C   UNL     1     -41.620 -15.500 -27.702  0.00  0.00    +0.000 C 
ATOM     27  O   UNL     1     -42.565 -16.514 -28.015  0.00  0.00    +0.000 OA
ENDBRANCH  25  27
ENDBRANCH  17  19
ENDBRANCH   2  16
BRANCH  12  28
ATOM     28  C   UNL     1     -44.573 -15.631 -25.065  0.00  0.00    +0.000 C 
BRANCH  28  29
ATOM     29  C   UNL     1     -45.921 -15.182 -25.596  0.00  0.00    +0.000 C 
BRANCH  29  30
ATOM     30  C   UNL     1     -45.963 -13.670 -25.651  0.00  0.00    +0.000 C 
BRANCH  30  32
ATOM     31  C   UNL     1     -46.162 -13.633 -27.849  0.00  0.00    +0.000 C 
ATOM     32  O   UNL     1     -46.821 -13.266 -26.674  0.00  0.00    +0.000 OA
ENDBRANCH  30  32
ENDBRANCH  29  30
ENDBRANCH  28  29
ENDBRANCH  12  28
TORSDOF 7
ENDMDL
