MODEL 1
REMARK VINA RESULT:      -5.7      0.000      0.000
REMARK  Name = ZINC000032760773
REMARK  3 active torsions:
REMARK  status: ('A' for Active; 'I' for Inactive)
REMARK    1  A    between atoms: N_2  and  C_17
REMARK    2  A    between atoms: C_3  and  C_5
REMARK    3  A    between atoms: C_17  and  C_18
REMARK                            x       y       z     vdW  Elec       q    Type
REMARK                         _______ _______ _______ _____ _____    ______ ____
ROOT
ATOM      1  C   UNL     1     -44.772  -6.850 -35.818  0.00  0.00    +0.000 C 
ATOM      2  N   UNL     1     -44.885  -6.292 -34.477  0.00  0.00    +0.000 N 
ATOM      3  C   UNL     1     -46.061  -5.540 -34.121  0.00  0.00    +0.000 C 
ATOM      4  O   UNL     1     -47.031  -5.495 -34.927  0.00  0.00    +0.000 OA
ENDROOT
BRANCH   3   5
ATOM      5  C   UNL     1     -46.158  -4.798 -32.838  0.00  0.00    +0.000 A 
ATOM      6  C   UNL     1     -46.808  -5.402 -31.755  0.00  0.00    +0.000 A 
ATOM      7  C   UNL     1     -46.890  -4.749 -30.526  0.00  0.00    +0.000 A 
ATOM      8  O   UNL     1     -47.481  -5.299 -29.561  0.00  0.00    +0.000 OA
ATOM      9  N   UNL     1     -46.333  -3.521 -30.369  0.00  0.00    +0.000 N 
ATOM     10  C   UNL     1     -45.688  -2.895 -31.387  0.00  0.00    +0.000 A 
ATOM     11  C   UNL     1     -45.135  -1.627 -31.181  0.00  0.00    +0.000 A 
ATOM     12  C   UNL     1     -44.479  -0.970 -32.224  0.00  0.00    +0.000 A 
ATOM     13  C   UNL     1     -44.375  -1.575 -33.478  0.00  0.00    +0.000 A 
ATOM     14  C   UNL     1     -44.924  -2.842 -33.693  0.00  0.00    +0.000 A 
ATOM     15  C   UNL     1     -45.581  -3.521 -32.654  0.00  0.00    +0.000 A 
ATOM     16  H   UNL     1     -46.399  -3.072 -29.494  0.00  0.00    +0.000 HD
ENDBRANCH   3   5
BRANCH   2  17
ATOM     17  C   UNL     1     -43.939  -6.739 -33.457  0.00  0.00    +0.000 C 
BRANCH  17  18
ATOM     18  C   UNL     1     -42.790  -5.793 -33.339  0.00  0.00    +0.000 A 
ATOM     19  C   UNL     1     -42.516  -5.163 -32.120  0.00  0.00    +0.000 A 
ATOM     20  C   UNL     1     -41.448  -4.268 -32.018  0.00  0.00    +0.000 A 
ATOM     21  C   UNL     1     -40.652  -3.997 -33.135  0.00  0.00    +0.000 A 
ATOM     22  F   UNL     1     -39.618  -3.128 -33.030  0.00  0.00    +0.000 F 
ATOM     23  C   UNL     1     -40.927  -4.623 -34.357  0.00  0.00    +0.000 A 
ATOM     24  F   UNL     1     -40.161  -4.364 -35.445  0.00  0.00    +0.000 F 
ATOM     25  C   UNL     1     -41.995  -5.518 -34.458  0.00  0.00    +0.000 A 
ENDBRANCH  17  18
ENDBRANCH   2  17
TORSDOF 3
ENDMDL
MODEL 2
REMARK VINA RESULT:      -5.6      3.063      5.175
REMARK  Name = ZINC000032760773
REMARK  3 active torsions:
REMARK  status: ('A' for Active; 'I' for Inactive)
REMARK    1  A    between atoms: N_2  and  C_17
REMARK    2  A    between atoms: C_3  and  C_5
REMARK    3  A    between atoms: C_17  and  C_18
REMARK                            x       y       z     vdW  Elec       q    Type
REMARK                         _______ _______ _______ _____ _____    ______ ____
ROOT
ATOM      1  C   UNL     1     -41.454  -5.364 -31.400  0.00  0.00    +0.000 C 
ATOM      2  N   UNL     1     -42.885  -5.522 -31.172  0.00  0.00    +0.000 N 
ATOM      3  C   UNL     1     -43.357  -5.872 -29.857  0.00  0.00    +0.000 C 
ATOM      4  O   UNL     1     -42.539  -5.901 -28.896  0.00  0.00    +0.000 OA
ENDROOT
BRANCH   3   5
ATOM      5  C   UNL     1     -44.778  -6.221 -29.602  0.00  0.00    +0.000 A 
ATOM      6  C   UNL     1     -45.597  -5.290 -28.953  0.00  0.00    +0.000 A 
ATOM      7  C   UNL     1     -46.943  -5.571 -28.726  0.00  0.00    +0.000 A 
ATOM      8  O   UNL     1     -47.669  -4.729 -28.137  0.00  0.00    +0.000 OA
ATOM      9  N   UNL     1     -47.473  -6.751 -29.138  0.00  0.00    +0.000 N 
ATOM     10  C   UNL     1     -46.720  -7.685 -29.776  0.00  0.00    +0.000 A 
ATOM     11  C   UNL     1     -47.307  -8.889 -30.179  0.00  0.00    +0.000 A 
ATOM     12  C   UNL     1     -46.540  -9.862 -30.825  0.00  0.00    +0.000 A 
ATOM     13  C   UNL     1     -45.184  -9.635 -31.071  0.00  0.00    +0.000 A 
ATOM     14  C   UNL     1     -44.590  -8.435 -30.673  0.00  0.00    +0.000 A 
ATOM     15  C   UNL     1     -45.348  -7.443 -30.028  0.00  0.00    +0.000 A 
ATOM     16  H   UNL     1     -48.426  -6.935 -28.971  0.00  0.00    +0.000 HD
ENDBRANCH   3   5
BRANCH   2  17
ATOM     17  C   UNL     1     -43.807  -5.055 -32.204  0.00  0.00    +0.000 C 
BRANCH  17  18
ATOM     18  C   UNL     1     -43.997  -3.576 -32.125  0.00  0.00    +0.000 A 
ATOM     19  C   UNL     1     -45.028  -3.037 -31.347  0.00  0.00    +0.000 A 
ATOM     20  C   UNL     1     -45.211  -1.652 -31.288  0.00  0.00    +0.000 A 
ATOM     21  C   UNL     1     -44.366  -0.803 -32.009  0.00  0.00    +0.000 A 
ATOM     22  F   UNL     1     -44.549   0.538 -31.949  0.00  0.00    +0.000 F 
ATOM     23  C   UNL     1     -43.338  -1.341 -32.793  0.00  0.00    +0.000 A 
ATOM     24  F   UNL     1     -42.516  -0.524 -33.497  0.00  0.00    +0.000 F 
ATOM     25  C   UNL     1     -43.155  -2.726 -32.851  0.00  0.00    +0.000 A 
ENDBRANCH  17  18
ENDBRANCH   2  17
TORSDOF 3
ENDMDL
MODEL 3
REMARK VINA RESULT:      -5.6     15.304     17.000
REMARK  Name = ZINC000032760773
REMARK  3 active torsions:
REMARK  status: ('A' for Active; 'I' for Inactive)
REMARK    1  A    between atoms: N_2  and  C_17
REMARK    2  A    between atoms: C_3  and  C_5
REMARK    3  A    between atoms: C_17  and  C_18
REMARK                            x       y       z     vdW  Elec       q    Type
REMARK                         _______ _______ _______ _____ _____    ______ ____
ROOT
ATOM      1  C   UNL     1     -45.756 -14.591 -20.863  0.00  0.00    +0.000 C 
ATOM      2  N   UNL     1     -45.193 -15.451 -21.897  0.00  0.00    +0.000 N 
ATOM      3  C   UNL     1     -45.622 -15.288 -23.263  0.00  0.00    +0.000 C 
ATOM      4  O   UNL     1     -46.372 -14.318 -23.562  0.00  0.00    +0.000 OA
ENDROOT
BRANCH   3   5
ATOM      5  C   UNL     1     -45.224 -16.244 -24.328  0.00  0.00    +0.000 A 
ATOM      6  C   UNL     1     -45.827 -17.507 -24.362  0.00  0.00    +0.000 A 
ATOM      7  C   UNL     1     -45.502 -18.418 -25.366  0.00  0.00    +0.000 A 
ATOM      8  O   UNL     1     -46.047 -19.552 -25.384  0.00  0.00    +0.000 OA
ATOM      9  N   UNL     1     -44.599 -18.084 -26.323  0.00  0.00    +0.000 N 
ATOM     10  C   UNL     1     -43.991 -16.870 -26.336  0.00  0.00    +0.000 A 
ATOM     11  C   UNL     1     -43.063 -16.571 -27.339  0.00  0.00    +0.000 A 
ATOM     12  C   UNL     1     -42.423 -15.330 -27.356  0.00  0.00    +0.000 A 
ATOM     13  C   UNL     1     -42.705 -14.383 -26.369  0.00  0.00    +0.000 A 
ATOM     14  C   UNL     1     -43.631 -14.672 -25.364  0.00  0.00    +0.000 A 
ATOM     15  C   UNL     1     -44.290 -15.912 -25.336  0.00  0.00    +0.000 A 
ATOM     16  H   UNL     1     -44.381 -18.738 -27.027  0.00  0.00    +0.000 HD
ENDBRANCH   3   5
BRANCH   2  17
ATOM     17  C   UNL     1     -44.021 -16.256 -21.567  0.00  0.00    +0.000 C 
BRANCH  17  18
ATOM     18  C   UNL     1     -44.385 -17.392 -20.669  0.00  0.00    +0.000 A 
ATOM     19  C   UNL     1     -43.442 -17.921 -19.780  0.00  0.00    +0.000 A 
ATOM     20  C   UNL     1     -43.783 -18.994 -18.952  0.00  0.00    +0.000 A 
ATOM     21  C   UNL     1     -45.067 -19.543 -19.012  0.00  0.00    +0.000 A 
ATOM     22  F   UNL     1     -45.392 -20.583 -18.206  0.00  0.00    +0.000 F 
ATOM     23  C   UNL     1     -46.011 -19.019 -19.903  0.00  0.00    +0.000 A 
ATOM     24  F   UNL     1     -47.258 -19.548 -19.968  0.00  0.00    +0.000 F 
ATOM     25  C   UNL     1     -45.669 -17.946 -20.731  0.00  0.00    +0.000 A 
ENDBRANCH  17  18
ENDBRANCH   2  17
TORSDOF 3
ENDMDL
