MODEL 1
REMARK VINA RESULT:      -6.9      0.000      0.000
REMARK  Name = ZINC000004257540
REMARK  8 active torsions:
REMARK  status: ('A' for Active; 'I' for Inactive)
REMARK    1  A    between atoms: C_6  and  O_23
REMARK    2  A    between atoms: C_11  and  C_12
REMARK    3  A    between atoms: O_23  and  C_24
REMARK    4  A    between atoms: C_26  and  C_36
REMARK    5  A    between atoms: C_27  and  O_28
REMARK    6  A    between atoms: C_29  and  O_30
REMARK    7  A    between atoms: C_31  and  O_32
REMARK    8  A    between atoms: C_36  and  O_37
REMARK                            x       y       z     vdW  Elec       q    Type
REMARK                         _______ _______ _______ _____ _____    ______ ____
ROOT
ATOM      1  O   UNL     1     -41.937  -4.758 -32.961  0.00  0.00    +0.000 OA
ATOM      2  C   UNL     1     -42.427  -3.649 -32.610  0.00  0.00    +0.000 A 
ATOM      3  C   UNL     1     -41.609  -2.510 -32.579  0.00  0.00    +0.000 A 
ATOM      4  C   UNL     1     -40.253  -2.568 -32.925  0.00  0.00    +0.000 A 
ATOM      5  C   UNL     1     -39.467  -1.412 -32.884  0.00  0.00    +0.000 A 
ATOM      6  C   UNL     1     -40.029  -0.185 -32.497  0.00  0.00    +0.000 A 
ATOM      7  C   UNL     1     -41.382  -0.127 -32.150  0.00  0.00    +0.000 A 
ATOM      8  C   UNL     1     -42.174  -1.278 -32.188  0.00  0.00    +0.000 A 
ATOM      9  O   UNL     1     -43.457  -1.205 -31.856  0.00  0.00    +0.000 OA
ATOM     10  C   UNL     1     -44.258  -2.264 -31.874  0.00  0.00    +0.000 A 
ATOM     11  C   UNL     1     -43.791  -3.536 -32.248  0.00  0.00    +0.000 A 
ENDROOT
BRANCH  11  12
ATOM     12  C   UNL     1     -44.748  -4.684 -32.245  0.00  0.00    +0.000 A 
ATOM     13  C   UNL     1     -45.484  -4.987 -33.402  0.00  0.00    +0.000 A 
ATOM     14  C   UNL     1     -46.369  -6.067 -33.428  0.00  0.00    +0.000 A 
ATOM     15  C   UNL     1     -46.542  -6.865 -32.294  0.00  0.00    +0.000 A 
ATOM     16  C   UNL     1     -45.864  -6.532 -31.101  0.00  0.00    +0.000 A 
ATOM     17  C   UNL     1     -44.958  -5.468 -31.099  0.00  0.00    +0.000 A 
ATOM     18  O   UNL     1     -46.099  -7.208 -29.899  0.00  0.00    +0.000 OA
ATOM     19  C   UNL     1     -47.374  -7.759 -29.581  0.00  0.00    +0.000 C 
ATOM     20  C   UNL     1     -47.594  -9.118 -30.234  0.00  0.00    +0.000 C 
ATOM     21  C   UNL     1     -47.076  -9.188 -31.666  0.00  0.00    +0.000 C 
ATOM     22  O   UNL     1     -47.356  -7.998 -32.395  0.00  0.00    +0.000 OA
ENDBRANCH  11  12
BRANCH   6  23
ATOM     23  O   UNL     1     -39.267   0.986 -32.446  0.00  0.00    +0.000 OA
BRANCH  23  24
ATOM     24  C   UNL     1     -38.422   1.413 -33.512  0.00  0.00    +0.000 C 
ATOM     25  O   UNL     1     -38.867   2.660 -34.001  0.00  0.00    +0.000 OA
ATOM     26  C   UNL     1     -38.061   2.960 -35.112  0.00  0.00    +0.000 C 
ATOM     27  C   UNL     1     -36.650   3.403 -34.658  0.00  0.00    +0.000 C 
ATOM     28  C   UNL     1     -36.304   2.837 -33.267  0.00  0.00    +0.000 C 
ATOM     29  C   UNL     1     -36.932   1.449 -33.076  0.00  0.00    +0.000 C 
BRANCH  27  30
ATOM     30  O   UNL     1     -36.505   4.794 -34.668  0.00  0.00    +0.000 OA
ATOM     31  H   UNL     1     -37.379   5.212 -34.623  0.00  0.00    +0.000 HD
ENDBRANCH  27  30
BRANCH  28  32
ATOM     32  O   UNL     1     -36.752   3.701 -32.261  0.00  0.00    +0.000 OA
ATOM     33  H   UNL     1     -37.410   3.245 -31.712  0.00  0.00    +0.000 HD
ENDBRANCH  28  32
BRANCH  29  34
ATOM     34  O   UNL     1     -36.753   0.999 -31.765  0.00  0.00    +0.000 OA
ATOM     35  H   UNL     1     -35.984   0.410 -31.727  0.00  0.00    +0.000 HD
ENDBRANCH  29  34
BRANCH  26  36
ATOM     36  C   UNL     1     -38.749   3.964 -36.025  0.00  0.00    +0.000 C 
BRANCH  36  37
ATOM     37  O   UNL     1     -38.026   4.099 -37.210  0.00  0.00    +0.000 OA
ATOM     38  H   UNL     1     -38.531   3.711 -37.943  0.00  0.00    +0.000 HD
ENDBRANCH  36  37
ENDBRANCH  26  36
ENDBRANCH  23  24
ENDBRANCH   6  23
TORSDOF 8
ENDMDL
MODEL 2
REMARK VINA RESULT:      -6.8      5.884     14.645
REMARK  Name = ZINC000004257540
REMARK  8 active torsions:
REMARK  status: ('A' for Active; 'I' for Inactive)
REMARK    1  A    between atoms: C_6  and  O_23
REMARK    2  A    between atoms: C_11  and  C_12
REMARK    3  A    between atoms: O_23  and  C_24
REMARK    4  A    between atoms: C_26  and  C_36
REMARK    5  A    between atoms: C_27  and  O_28
REMARK    6  A    between atoms: C_29  and  O_30
REMARK    7  A    between atoms: C_31  and  O_32
REMARK    8  A    between atoms: C_36  and  O_37
REMARK                            x       y       z     vdW  Elec       q    Type
REMARK                         _______ _______ _______ _____ _____    ______ ____
ROOT
ATOM      1  O   UNL     1     -46.937  -8.864 -30.844  0.00  0.00    +0.000 OA
ATOM      2  C   UNL     1     -46.655  -8.840 -29.615  0.00  0.00    +0.000 A 
ATOM      3  C   UNL     1     -46.663 -10.034 -28.879  0.00  0.00    +0.000 A 
ATOM      4  C   UNL     1     -46.978 -11.263 -29.473  0.00  0.00    +0.000 A 
ATOM      5  C   UNL     1     -46.974 -12.434 -28.710  0.00  0.00    +0.000 A 
ATOM      6  C   UNL     1     -46.653 -12.390 -27.344  0.00  0.00    +0.000 A 
ATOM      7  C   UNL     1     -46.339 -11.164 -26.750  0.00  0.00    +0.000 A 
ATOM      8  C   UNL     1     -46.341  -9.989 -27.506  0.00  0.00    +0.000 A 
ATOM      9  O   UNL     1     -46.041  -8.834 -26.927  0.00  0.00    +0.000 OA
ATOM     10  C   UNL     1     -46.026  -7.686 -27.594  0.00  0.00    +0.000 A 
ATOM     11  C   UNL     1     -46.332  -7.625 -28.964  0.00  0.00    +0.000 A 
ENDROOT
BRANCH  11  12
ATOM     12  C   UNL     1     -46.296  -6.298 -29.652  0.00  0.00    +0.000 A 
ATOM     13  C   UNL     1     -47.466  -5.527 -29.752  0.00  0.00    +0.000 A 
ATOM     14  C   UNL     1     -47.451  -4.276 -30.372  0.00  0.00    +0.000 A 
ATOM     15  C   UNL     1     -46.266  -3.770 -30.912  0.00  0.00    +0.000 A 
ATOM     16  C   UNL     1     -45.097  -4.562 -30.883  0.00  0.00    +0.000 A 
ATOM     17  C   UNL     1     -45.119  -5.798 -30.232  0.00  0.00    +0.000 A 
ATOM     18  O   UNL     1     -43.918  -4.169 -31.526  0.00  0.00    +0.000 OA
ATOM     19  C   UNL     1     -43.932  -3.390 -32.718  0.00  0.00    +0.000 C 
ATOM     20  C   UNL     1     -44.115  -1.904 -32.433  0.00  0.00    +0.000 C 
ATOM     21  C   UNL     1     -45.132  -1.622 -31.333  0.00  0.00    +0.000 C 
ATOM     22  O   UNL     1     -46.271  -2.471 -31.429  0.00  0.00    +0.000 OA
ENDBRANCH  11  12
BRANCH   6  23
ATOM     23  O   UNL     1     -46.642 -13.546 -26.556  0.00  0.00    +0.000 OA
BRANCH  23  24
ATOM     24  C   UNL     1     -45.674 -13.784 -25.537  0.00  0.00    +0.000 C 
ATOM     25  O   UNL     1     -46.321 -13.920 -24.290  0.00  0.00    +0.000 OA
ATOM     26  C   UNL     1     -45.305 -14.039 -23.327  0.00  0.00    +0.000 C 
ATOM     27  C   UNL     1     -44.662 -15.445 -23.385  0.00  0.00    +0.000 C 
ATOM     28  C   UNL     1     -44.832 -16.083 -24.777  0.00  0.00    +0.000 C 
ATOM     29  C   UNL     1     -44.783 -15.010 -25.874  0.00  0.00    +0.000 C 
BRANCH  27  30
ATOM     30  O   UNL     1     -45.163 -16.296 -22.394  0.00  0.00    +0.000 OA
ATOM     31  H   UNL     1     -44.535 -16.340 -21.657  0.00  0.00    +0.000 HD
ENDBRANCH  27  30
BRANCH  28  32
ATOM     32  O   UNL     1     -46.043 -16.781 -24.852  0.00  0.00    +0.000 OA
ATOM     33  H   UNL     1     -45.865 -17.717 -25.040  0.00  0.00    +0.000 HD
ENDBRANCH  28  32
BRANCH  29  34
ATOM     34  O   UNL     1     -45.091 -15.560 -27.122  0.00  0.00    +0.000 OA
ATOM     35  H   UNL     1     -45.471 -16.443 -27.001  0.00  0.00    +0.000 HD
ENDBRANCH  29  34
BRANCH  26  36
ATOM     36  C   UNL     1     -45.820 -13.663 -21.946  0.00  0.00    +0.000 C 
BRANCH  36  37
ATOM     37  O   UNL     1     -47.007 -14.346 -21.681  0.00  0.00    +0.000 OA
ATOM     38  H   UNL     1     -46.820 -15.111 -21.115  0.00  0.00    +0.000 HD
ENDBRANCH  36  37
ENDBRANCH  26  36
ENDBRANCH  23  24
ENDBRANCH   6  23
TORSDOF 8
ENDMDL
MODEL 3
REMARK VINA RESULT:      -6.8      5.934     14.169
REMARK  Name = ZINC000004257540
REMARK  8 active torsions:
REMARK  status: ('A' for Active; 'I' for Inactive)
REMARK    1  A    between atoms: C_6  and  O_23
REMARK    2  A    between atoms: C_11  and  C_12
REMARK    3  A    between atoms: O_23  and  C_24
REMARK    4  A    between atoms: C_26  and  C_36
REMARK    5  A    between atoms: C_27  and  O_28
REMARK    6  A    between atoms: C_29  and  O_30
REMARK    7  A    between atoms: C_31  and  O_32
REMARK    8  A    between atoms: C_36  and  O_37
REMARK                            x       y       z     vdW  Elec       q    Type
REMARK                         _______ _______ _______ _____ _____    ______ ____
ROOT
ATOM      1  O   UNL     1     -45.318  -6.758 -26.777  0.00  0.00    +0.000 OA
ATOM      2  C   UNL     1     -45.846  -7.713 -27.410  0.00  0.00    +0.000 A 
ATOM      3  C   UNL     1     -45.925  -8.980 -26.812  0.00  0.00    +0.000 A 
ATOM      4  C   UNL     1     -45.429  -9.218 -25.523  0.00  0.00    +0.000 A 
ATOM      5  C   UNL     1     -45.526 -10.492 -24.957  0.00  0.00    +0.000 A 
ATOM      6  C   UNL     1     -46.121 -11.543 -25.673  0.00  0.00    +0.000 A 
ATOM      7  C   UNL     1     -46.616 -11.307 -26.960  0.00  0.00    +0.000 A 
ATOM      8  C   UNL     1     -46.522 -10.036 -27.532  0.00  0.00    +0.000 A 
ATOM      9  O   UNL     1     -46.996  -9.828 -28.754  0.00  0.00    +0.000 OA
ATOM     10  C   UNL     1     -46.936  -8.642 -29.349  0.00  0.00    +0.000 A 
ATOM     11  C   UNL     1     -46.360  -7.527 -28.715  0.00  0.00    +0.000 A 
ENDROOT
BRANCH  11  12
ATOM     12  C   UNL     1     -46.326  -6.223 -29.444  0.00  0.00    +0.000 A 
ATOM     13  C   UNL     1     -47.495  -5.454 -29.563  0.00  0.00    +0.000 A 
ATOM     14  C   UNL     1     -47.482  -4.223 -30.222  0.00  0.00    +0.000 A 
ATOM     15  C   UNL     1     -46.299  -3.736 -30.783  0.00  0.00    +0.000 A 
ATOM     16  C   UNL     1     -45.130  -4.528 -30.735  0.00  0.00    +0.000 A 
ATOM     17  C   UNL     1     -45.151  -5.743 -30.045  0.00  0.00    +0.000 A 
ATOM     18  O   UNL     1     -43.954  -4.157 -31.395  0.00  0.00    +0.000 OA
ATOM     19  C   UNL     1     -43.973  -3.416 -32.611  0.00  0.00    +0.000 C 
ATOM     20  C   UNL     1     -44.152  -1.921 -32.372  0.00  0.00    +0.000 C 
ATOM     21  C   UNL     1     -45.164  -1.604 -31.277  0.00  0.00    +0.000 C 
ATOM     22  O   UNL     1     -46.305  -2.453 -31.341  0.00  0.00    +0.000 OA
ENDBRANCH  11  12
BRANCH   6  23
ATOM     23  O   UNL     1     -46.231 -12.828 -25.133  0.00  0.00    +0.000 OA
BRANCH  23  24
ATOM     24  C   UNL     1     -46.002 -14.014 -25.891  0.00  0.00    +0.000 C 
ATOM     25  O   UNL     1     -44.708 -13.977 -26.452  0.00  0.00    +0.000 OA
ATOM     26  C   UNL     1     -44.597 -15.114 -27.269  0.00  0.00    +0.000 C 
ATOM     27  C   UNL     1     -44.416 -16.387 -26.409  0.00  0.00    +0.000 C 
ATOM     28  C   UNL     1     -44.998 -16.196 -24.994  0.00  0.00    +0.000 C 
ATOM     29  C   UNL     1     -46.236 -15.289 -25.037  0.00  0.00    +0.000 C 
BRANCH  27  30
ATOM     30  O   UNL     1     -43.079 -16.789 -26.335  0.00  0.00    +0.000 OA
ATOM     31  H   UNL     1     -42.530 -16.041 -26.051  0.00  0.00    +0.000 HD
ENDBRANCH  27  30
BRANCH  28  32
ATOM     32  O   UNL     1     -44.037 -15.645 -24.139  0.00  0.00    +0.000 OA
ATOM     33  H   UNL     1     -43.156 -15.956 -24.401  0.00  0.00    +0.000 HD
ENDBRANCH  28  32
BRANCH  29  34
ATOM     34  O   UNL     1     -46.676 -14.987 -23.744  0.00  0.00    +0.000 OA
ATOM     35  H   UNL     1     -46.315 -15.635 -23.120  0.00  0.00    +0.000 HD
ENDBRANCH  29  34
BRANCH  26  36
ATOM     36  C   UNL     1     -43.506 -14.928 -28.314  0.00  0.00    +0.000 C 
BRANCH  36  37
ATOM     37  O   UNL     1     -43.253 -16.140 -28.955  0.00  0.00    +0.000 OA
ATOM     38  H   UNL     1     -43.744 -16.850 -28.512  0.00  0.00    +0.000 HD
ENDBRANCH  36  37
ENDBRANCH  26  36
ENDBRANCH  23  24
ENDBRANCH   6  23
TORSDOF 8
ENDMDL
