MODEL 1
REMARK VINA RESULT:      -7.3      0.000      0.000
REMARK  Name = ZINC000096011142 ZINC96011142 CSC027537832 MCULE-9100666836 MolPort-028-801-490 PubChem-75455099
REMARK  4 active torsions:
REMARK  status: ('A' for Active; 'I' for Inactive)
REMARK    1  A    between atoms: C_1  and  C_28
REMARK    2  A    between atoms: C_10  and  C_15
REMARK    3  A    between atoms: N_17  and  C_20
REMARK    4  A    between atoms: C_28  and  O_31
REMARK                            x       y       z     vdW  Elec       q    Type
REMARK                         _______ _______ _______ _____ _____    ______ ____
ROOT
ATOM      1  C   UNL     1     -46.368 -11.999 -27.945  0.00  0.00    +0.000 A 
ATOM      2  C   UNL     1     -46.311 -13.220 -28.628  0.00  0.00    +0.000 A 
ATOM      3  C   UNL     1     -46.058 -13.250 -30.001  0.00  0.00    +0.000 A 
ATOM      4  C   UNL     1     -45.864 -12.059 -30.704  0.00  0.00    +0.000 A 
ATOM      5  N   UNL     1     -45.598 -12.098 -32.105  0.00  0.00    +0.000 N 
ATOM      6  C   UNL     1     -45.515 -10.888 -32.858  0.00  0.00    +0.000 C 
ATOM      7  O   UNL     1     -45.191 -10.928 -34.074  0.00  0.00    +0.000 OA
ATOM      8  C   UNL     1     -45.885  -9.582 -32.228  0.00  0.00    +0.000 C 
ATOM      9  N   UNL     1     -45.690  -9.600 -30.773  0.00  0.00    +0.000 N 
ATOM     10  C   UNL     1     -45.304  -8.383 -30.103  0.00  0.00    +0.000 C 
ATOM     11  O   UNL     1     -44.548  -8.439 -29.095  0.00  0.00    +0.000 OA
ATOM     12  C   UNL     1     -45.906 -10.824 -30.033  0.00  0.00    +0.000 A 
ATOM     13  C   UNL     1     -46.164 -10.807 -28.652  0.00  0.00    +0.000 A 
ATOM     14  H   UNL     1     -45.471 -12.965 -32.555  0.00  0.00    +0.000 HD
ENDROOT
BRANCH  10  15
ATOM     15  C   UNL     1     -45.765  -7.061 -30.571  0.00  0.00    +0.000 A 
ATOM     16  N   UNL     1     -44.951  -6.075 -30.980  0.00  0.00    +0.000 NA
ATOM     17  N   UNL     1     -45.712  -5.059 -31.346  0.00  0.00    +0.000 N 
ATOM     18  C   UNL     1     -47.012  -5.384 -31.186  0.00  0.00    +0.000 A 
ATOM     19  C   UNL     1     -47.089  -6.674 -30.688  0.00  0.00    +0.000 A 
BRANCH  17  20
ATOM     20  C   UNL     1     -45.224  -3.796 -31.851  0.00  0.00    +0.000 A 
ATOM     21  C   UNL     1     -45.478  -2.626 -31.111  0.00  0.00    +0.000 A 
ATOM     22  C   UNL     1     -45.031  -1.381 -31.555  0.00  0.00    +0.000 A 
ATOM     23  C   UNL     1     -44.321  -1.282 -32.750  0.00  0.00    +0.000 A 
ATOM     24  F   UNL     1     -43.887  -0.075 -33.184  0.00  0.00    +0.000 F 
ATOM     25  C   UNL     1     -44.057  -2.429 -33.501  0.00  0.00    +0.000 A 
ATOM     26  C   UNL     1     -44.499  -3.684 -33.066  0.00  0.00    +0.000 A 
ATOM     27  C   UNL     1     -44.165  -4.856 -33.924  0.00  0.00    +0.000 C 
ENDBRANCH  17  20
ENDBRANCH  10  15
BRANCH   1  28
ATOM     28  C   UNL     1     -46.635 -11.972 -26.497  0.00  0.00    +0.000 C 
ATOM     29  O   UNL     1     -46.580 -13.039 -25.825  0.00  0.00    +0.000 OA
BRANCH  28  31
ATOM     30  C   UNL     1     -46.071 -10.147 -24.943  0.00  0.00    +0.000 C 
ATOM     31  O   UNL     1     -46.950 -10.762 -25.874  0.00  0.00    +0.000 OA
ENDBRANCH  28  31
ENDBRANCH   1  28
TORSDOF 4
ENDMDL
MODEL 2
REMARK VINA RESULT:      -6.8      2.020      4.321
REMARK  Name = ZINC000096011142 ZINC96011142 CSC027537832 MCULE-9100666836 MolPort-028-801-490 PubChem-75455099
REMARK  4 active torsions:
REMARK  status: ('A' for Active; 'I' for Inactive)
REMARK    1  A    between atoms: C_1  and  C_28
REMARK    2  A    between atoms: C_10  and  C_15
REMARK    3  A    between atoms: N_17  and  C_20
REMARK    4  A    between atoms: C_28  and  O_31
REMARK                            x       y       z     vdW  Elec       q    Type
REMARK                         _______ _______ _______ _____ _____    ______ ____
ROOT
ATOM      1  C   UNL     1     -45.722 -11.342 -32.075  0.00  0.00    +0.000 A 
ATOM      2  C   UNL     1     -45.869 -12.344 -31.108  0.00  0.00    +0.000 A 
ATOM      3  C   UNL     1     -46.246 -12.017 -29.804  0.00  0.00    +0.000 A 
ATOM      4  C   UNL     1     -46.476 -10.684 -29.455  0.00  0.00    +0.000 A 
ATOM      5  N   UNL     1     -46.869 -10.359 -28.123  0.00  0.00    +0.000 N 
ATOM      6  C   UNL     1     -46.993  -8.995 -27.719  0.00  0.00    +0.000 C 
ATOM      7  O   UNL     1     -47.427  -8.719 -26.570  0.00  0.00    +0.000 OA
ATOM      8  C   UNL     1     -46.536  -7.896 -28.628  0.00  0.00    +0.000 C 
ATOM      9  N   UNL     1     -46.599  -8.292 -30.040  0.00  0.00    +0.000 N 
ATOM     10  C   UNL     1     -46.894  -7.291 -31.035  0.00  0.00    +0.000 C 
ATOM     11  O   UNL     1     -47.556  -7.608 -32.061  0.00  0.00    +0.000 OA
ATOM     12  C   UNL     1     -46.344  -9.666 -30.415  0.00  0.00    +0.000 A 
ATOM     13  C   UNL     1     -45.962 -10.007 -31.722  0.00  0.00    +0.000 A 
ATOM     14  H   UNL     1     -47.057 -11.079 -27.478  0.00  0.00    +0.000 HD
ENDROOT
BRANCH  10  15
ATOM     15  C   UNL     1     -46.447  -5.892 -30.884  0.00  0.00    +0.000 A 
ATOM     16  N   UNL     1     -45.479  -5.323 -31.620  0.00  0.00    +0.000 NA
ATOM     17  N   UNL     1     -45.369  -4.066 -31.226  0.00  0.00    +0.000 N 
ATOM     18  C   UNL     1     -46.265  -3.817 -30.247  0.00  0.00    +0.000 A 
ATOM     19  C   UNL     1     -46.984  -4.974 -29.999  0.00  0.00    +0.000 A 
BRANCH  17  20
ATOM     20  C   UNL     1     -44.438  -3.104 -31.769  0.00  0.00    +0.000 A 
ATOM     21  C   UNL     1     -44.928  -1.861 -32.211  0.00  0.00    +0.000 A 
ATOM     22  C   UNL     1     -44.072  -0.898 -32.745  0.00  0.00    +0.000 A 
ATOM     23  C   UNL     1     -42.707  -1.159 -32.848  0.00  0.00    +0.000 A 
ATOM     24  F   UNL     1     -41.874  -0.226 -33.366  0.00  0.00    +0.000 F 
ATOM     25  C   UNL     1     -42.198  -2.384 -32.414  0.00  0.00    +0.000 A 
ATOM     26  C   UNL     1     -43.046  -3.359 -31.877  0.00  0.00    +0.000 A 
ATOM     27  C   UNL     1     -42.417  -4.635 -31.431  0.00  0.00    +0.000 C 
ENDBRANCH  17  20
ENDBRANCH  10  15
BRANCH   1  28
ATOM     28  C   UNL     1     -45.323 -11.691 -33.449  0.00  0.00    +0.000 C 
ATOM     29  O   UNL     1     -44.126 -11.540 -33.817  0.00  0.00    +0.000 OA
BRANCH  28  31
ATOM     30  C   UNL     1     -46.322 -11.778 -35.699  0.00  0.00    +0.000 C 
ATOM     31  O   UNL     1     -46.277 -12.190 -34.340  0.00  0.00    +0.000 OA
ENDBRANCH  28  31
ENDBRANCH   1  28
TORSDOF 4
ENDMDL
MODEL 3
REMARK VINA RESULT:      -6.6      5.887      9.308
REMARK  Name = ZINC000096011142 ZINC96011142 CSC027537832 MCULE-9100666836 MolPort-028-801-490 PubChem-75455099
REMARK  4 active torsions:
REMARK  status: ('A' for Active; 'I' for Inactive)
REMARK    1  A    between atoms: C_1  and  C_28
REMARK    2  A    between atoms: C_10  and  C_15
REMARK    3  A    between atoms: N_17  and  C_20
REMARK    4  A    between atoms: C_28  and  O_31
REMARK                            x       y       z     vdW  Elec       q    Type
REMARK                         _______ _______ _______ _____ _____    ______ ____
ROOT
ATOM      1  C   UNL     1     -45.051 -18.058 -22.288  0.00  0.00    +0.000 A 
ATOM      2  C   UNL     1     -45.234 -18.112 -20.901  0.00  0.00    +0.000 A 
ATOM      3  C   UNL     1     -45.625 -16.973 -20.195  0.00  0.00    +0.000 A 
ATOM      4  C   UNL     1     -45.831 -15.767 -20.870  0.00  0.00    +0.000 A 
ATOM      5  N   UNL     1     -46.237 -14.609 -20.143  0.00  0.00    +0.000 N 
ATOM      6  C   UNL     1     -46.337 -13.344 -20.798  0.00  0.00    +0.000 C 
ATOM      7  O   UNL     1     -46.783 -12.348 -20.171  0.00  0.00    +0.000 OA
ATOM      8  C   UNL     1     -45.843 -13.181 -22.202  0.00  0.00    +0.000 C 
ATOM      9  N   UNL     1     -45.892 -14.444 -22.949  0.00  0.00    +0.000 N 
ATOM     10  C   UNL     1     -46.151 -14.407 -24.367  0.00  0.00    +0.000 C 
ATOM     11  O   UNL     1     -46.803 -15.342 -24.907  0.00  0.00    +0.000 OA
ATOM     12  C   UNL     1     -45.662 -15.696 -22.264  0.00  0.00    +0.000 A 
ATOM     13  C   UNL     1     -45.267 -16.849 -22.962  0.00  0.00    +0.000 A 
ATOM     14  H   UNL     1     -46.450 -14.682 -19.184  0.00  0.00    +0.000 HD
ENDROOT
BRANCH  10  15
ATOM     15  C   UNL     1     -45.675 -13.294 -25.213  0.00  0.00    +0.000 A 
ATOM     16  N   UNL     1     -46.480 -12.428 -25.849  0.00  0.00    +0.000 NA
ATOM     17  N   UNL     1     -45.709 -11.562 -26.483  0.00  0.00    +0.000 N 
ATOM     18  C   UNL     1     -44.411 -11.857 -26.254  0.00  0.00    +0.000 A 
ATOM     19  C   UNL     1     -44.348 -12.971 -25.434  0.00  0.00    +0.000 A 
BRANCH  17  20
ATOM     20  C   UNL     1     -46.184 -10.461 -27.289  0.00  0.00    +0.000 A 
ATOM     21  C   UNL     1     -46.175  -9.165 -26.740  0.00  0.00    +0.000 A 
ATOM     22  C   UNL     1     -46.625  -8.069 -27.475  0.00  0.00    +0.000 A 
ATOM     23  C   UNL     1     -47.093  -8.246 -28.775  0.00  0.00    +0.000 A 
ATOM     24  F   UNL     1     -47.530  -7.183 -29.491  0.00  0.00    +0.000 F 
ATOM     25  C   UNL     1     -47.109  -9.522 -29.342  0.00  0.00    +0.000 A 
ATOM     26  C   UNL     1     -46.661 -10.631 -28.615  0.00  0.00    +0.000 A 
ATOM     27  C   UNL     1     -46.705 -11.954 -29.299  0.00  0.00    +0.000 C 
ENDBRANCH  17  20
ENDBRANCH  10  15
BRANCH   1  28
ATOM     28  C   UNL     1     -44.639 -19.263 -23.028  0.00  0.00    +0.000 C 
ATOM     29  O   UNL     1     -43.747 -20.020 -22.555  0.00  0.00    +0.000 OA
BRANCH  28  31
ATOM     30  C   UNL     1     -44.504 -19.569 -25.468  0.00  0.00    +0.000 C 
ATOM     31  O   UNL     1     -45.240 -19.561 -24.253  0.00  0.00    +0.000 OA
ENDBRANCH  28  31
ENDBRANCH   1  28
TORSDOF 4
ENDMDL
