MODEL 1
REMARK VINA RESULT:      -6.9      0.000      0.000
REMARK  Name = ZINC000096182881 ZINC96182881 PubChem-97458173
REMARK  3 active torsions:
REMARK  status: ('A' for Active; 'I' for Inactive)
REMARK    1  A    between atoms: C_6  and  N_21
REMARK    2  A    between atoms: C_8  and  C_9
REMARK    3  A    between atoms: C_10  and  C_14
REMARK                            x       y       z     vdW  Elec       q    Type
REMARK                         _______ _______ _______ _____ _____    ______ ____
ROOT
ATOM      1  C   UNL     1     -45.917  -3.368 -31.306  0.00  0.00    +0.000 C 
ATOM      2  C   UNL     1     -44.610  -3.907 -31.919  0.00  0.00    +0.000 C 
ATOM      3  C   UNL     1     -46.172  -4.944 -33.597  0.00  0.00    +0.000 C 
ATOM      4  C   UNL     1     -47.319  -4.278 -32.911  0.00  0.00    +0.000 C 
ATOM      5  C   UNL     1     -43.765  -5.638 -33.544  0.00  0.00    +0.000 C 
ATOM      6  N   UNL     1     -44.861  -4.829 -33.031  0.00  0.00    +0.000 N 
ATOM      7  O   UNL     1     -46.376  -5.647 -34.622  0.00  0.00    +0.000 OA
ATOM      8  O   UNL     1     -46.909  -3.084 -32.278  0.00  0.00    +0.000 OA
ENDROOT
BRANCH   2   9
ATOM      9  C   UNL     1     -43.728  -2.776 -32.355  0.00  0.00    +0.000 A 
ATOM     10  C   UNL     1     -42.339  -2.921 -32.272  0.00  0.00    +0.000 A 
ATOM     11  C   UNL     1     -41.498  -1.882 -32.680  0.00  0.00    +0.000 A 
ATOM     12  C   UNL     1     -42.043  -0.693 -33.175  0.00  0.00    +0.000 A 
ATOM     13  C   UNL     1     -43.430  -0.544 -33.262  0.00  0.00    +0.000 A 
ATOM     14  C   UNL     1     -44.272  -1.582 -32.854  0.00  0.00    +0.000 A 
ATOM     15  F   UNL     1     -41.227   0.313 -33.569  0.00  0.00    +0.000 F 
ENDBRANCH   2   9
BRANCH   1  16
ATOM     16  C   UNL     1     -46.424  -4.185 -30.152  0.00  0.00    +0.000 C 
ATOM     17  N   UNL     1     -45.627  -5.259 -29.628  0.00  0.00    +0.000 NA
ATOM     18  O   UNL     1     -47.563  -3.932 -29.680  0.00  0.00    +0.000 OA
BRANCH  17  24
ATOM     19  C   UNL     1     -46.509  -6.066 -24.794  0.00  0.00    +0.000 C 
ATOM     20  C   UNL     1     -46.407  -6.559 -26.192  0.00  0.00    +0.000 A 
ATOM     21  C   UNL     1     -46.648  -7.906 -26.478  0.00  0.00    +0.000 A 
ATOM     22  C   UNL     1     -46.550  -8.368 -27.793  0.00  0.00    +0.000 A 
ATOM     23  C   UNL     1     -46.213  -7.483 -28.822  0.00  0.00    +0.000 A 
ATOM     24  C   UNL     1     -45.971  -6.133 -28.545  0.00  0.00    +0.000 A 
ATOM     25  C   UNL     1     -46.070  -5.675 -27.222  0.00  0.00    +0.000 A 
ATOM     26  C   UNL     1     -46.805  -9.800 -28.098  0.00  0.00    +0.000 C 
ENDBRANCH  17  24
ENDBRANCH   1  16
TORSDOF 3
ENDMDL
MODEL 2
REMARK VINA RESULT:      -6.6      6.863      9.991
REMARK  Name = ZINC000096182881 ZINC96182881 PubChem-97458173
REMARK  3 active torsions:
REMARK  status: ('A' for Active; 'I' for Inactive)
REMARK    1  A    between atoms: C_6  and  N_21
REMARK    2  A    between atoms: C_8  and  C_9
REMARK    3  A    between atoms: C_10  and  C_14
REMARK                            x       y       z     vdW  Elec       q    Type
REMARK                         _______ _______ _______ _____ _____    ______ ____
ROOT
ATOM      1  C   UNL     1     -46.182 -12.066 -26.182  0.00  0.00    +0.000 C 
ATOM      2  C   UNL     1     -45.137 -11.221 -26.938  0.00  0.00    +0.000 C 
ATOM      3  C   UNL     1     -46.131 -12.342 -28.960  0.00  0.00    +0.000 C 
ATOM      4  C   UNL     1     -47.120 -13.023 -28.072  0.00  0.00    +0.000 C 
ATOM      5  C   UNL     1     -43.999 -11.044 -29.180  0.00  0.00    +0.000 C 
ATOM      6  N   UNL     1     -45.102 -11.540 -28.369  0.00  0.00    +0.000 N 
ATOM      7  O   UNL     1     -46.171 -12.530 -30.205  0.00  0.00    +0.000 OA
ATOM      8  O   UNL     1     -47.380 -12.254 -26.917  0.00  0.00    +0.000 OA
ENDROOT
BRANCH   2   9
ATOM      9  C   UNL     1     -45.390  -9.759 -26.726  0.00  0.00    +0.000 A 
ATOM     10  C   UNL     1     -44.660  -9.075 -25.748  0.00  0.00    +0.000 A 
ATOM     11  C   UNL     1     -44.873  -7.709 -25.538  0.00  0.00    +0.000 A 
ATOM     12  C   UNL     1     -45.818  -7.022 -26.307  0.00  0.00    +0.000 A 
ATOM     13  C   UNL     1     -46.548  -7.700 -27.287  0.00  0.00    +0.000 A 
ATOM     14  C   UNL     1     -46.335  -9.066 -27.498  0.00  0.00    +0.000 A 
ATOM     15  F   UNL     1     -46.024  -5.700 -26.103  0.00  0.00    +0.000 F 
ENDBRANCH   2   9
BRANCH   1  16
ATOM     16  C   UNL     1     -45.627 -13.335 -25.603  0.00  0.00    +0.000 C 
ATOM     17  N   UNL     1     -46.476 -14.211 -24.847  0.00  0.00    +0.000 NA
ATOM     18  O   UNL     1     -44.405 -13.596 -25.767  0.00  0.00    +0.000 OA
BRANCH  17  24
ATOM     19  C   UNL     1     -45.587 -19.106 -25.062  0.00  0.00    +0.000 C 
ATOM     20  C   UNL     1     -45.658 -17.834 -24.296  0.00  0.00    +0.000 A 
ATOM     21  C   UNL     1     -45.353 -17.822 -22.932  0.00  0.00    +0.000 A 
ATOM     22  C   UNL     1     -45.420 -16.626 -22.213  0.00  0.00    +0.000 A 
ATOM     23  C   UNL     1     -45.792 -15.442 -22.858  0.00  0.00    +0.000 A 
ATOM     24  C   UNL     1     -46.099 -15.446 -24.223  0.00  0.00    +0.000 A 
ATOM     25  C   UNL     1     -46.029 -16.650 -24.940  0.00  0.00    +0.000 A 
ATOM     26  C   UNL     1     -45.097 -16.613 -20.763  0.00  0.00    +0.000 C 
ENDBRANCH  17  24
ENDBRANCH   1  16
TORSDOF 3
ENDMDL
MODEL 3
REMARK VINA RESULT:      -6.6     10.550     13.423
REMARK  Name = ZINC000096182881 ZINC96182881 PubChem-97458173
REMARK  3 active torsions:
REMARK  status: ('A' for Active; 'I' for Inactive)
REMARK    1  A    between atoms: C_6  and  N_21
REMARK    2  A    between atoms: C_8  and  C_9
REMARK    3  A    between atoms: C_10  and  C_14
REMARK                            x       y       z     vdW  Elec       q    Type
REMARK                         _______ _______ _______ _____ _____    ______ ____
ROOT
ATOM      1  C   UNL     1     -45.126 -16.557 -25.623  0.00  0.00    +0.000 C 
ATOM      2  C   UNL     1     -44.696 -15.077 -25.656  0.00  0.00    +0.000 C 
ATOM      3  C   UNL     1     -42.379 -16.057 -25.655  0.00  0.00    +0.000 C 
ATOM      4  C   UNL     1     -42.978 -17.424 -25.697  0.00  0.00    +0.000 C 
ATOM      5  C   UNL     1     -42.690 -13.600 -25.272  0.00  0.00    +0.000 C 
ATOM      6  N   UNL     1     -43.243 -14.921 -25.534  0.00  0.00    +0.000 N 
ATOM      7  O   UNL     1     -41.127 -15.920 -25.662  0.00  0.00    +0.000 OA
ATOM      8  O   UNL     1     -44.240 -17.407 -26.331  0.00  0.00    +0.000 OA
ENDROOT
BRANCH   2   9
ATOM      9  C   UNL     1     -45.198 -14.411 -26.902  0.00  0.00    +0.000 A 
ATOM     10  C   UNL     1     -46.299 -13.551 -26.821  0.00  0.00    +0.000 A 
ATOM     11  C   UNL     1     -46.779 -12.914 -27.969  0.00  0.00    +0.000 A 
ATOM     12  C   UNL     1     -46.160 -13.134 -29.203  0.00  0.00    +0.000 A 
ATOM     13  C   UNL     1     -45.059 -13.990 -29.289  0.00  0.00    +0.000 A 
ATOM     14  C   UNL     1     -44.578 -14.628 -28.142  0.00  0.00    +0.000 A 
ATOM     15  F   UNL     1     -46.627 -12.517 -30.314  0.00  0.00    +0.000 F 
ENDBRANCH   2   9
BRANCH   1  16
ATOM     16  C   UNL     1     -45.466 -17.055 -24.248  0.00  0.00    +0.000 C 
ATOM     17  N   UNL     1     -45.223 -16.224 -23.103  0.00  0.00    +0.000 NA
ATOM     18  O   UNL     1     -45.935 -18.217 -24.120  0.00  0.00    +0.000 OA
BRANCH  17  24
ATOM     19  C   UNL     1     -44.989 -19.396 -19.271  0.00  0.00    +0.000 C 
ATOM     20  C   UNL     1     -45.381 -18.081 -19.843  0.00  0.00    +0.000 A 
ATOM     21  C   UNL     1     -46.017 -17.132 -19.039  0.00  0.00    +0.000 A 
ATOM     22  C   UNL     1     -46.386 -15.896 -19.577  0.00  0.00    +0.000 A 
ATOM     23  C   UNL     1     -46.117 -15.610 -20.920  0.00  0.00    +0.000 A 
ATOM     24  C   UNL     1     -45.480 -16.556 -21.731  0.00  0.00    +0.000 A 
ATOM     25  C   UNL     1     -45.113 -17.795 -21.185  0.00  0.00    +0.000 A 
ATOM     26  C   UNL     1     -47.062 -14.886 -18.724  0.00  0.00    +0.000 C 
ENDBRANCH  17  24
ENDBRANCH   1  16
TORSDOF 3
ENDMDL
