MODEL 1
REMARK VINA RESULT:      -6.5      0.000      0.000
REMARK  Name = ZINC000003831424 ZINC03831424 PubChem-6328150
REMARK  9 active torsions:
REMARK  status: ('A' for Active; 'I' for Inactive)
REMARK    1  A    between atoms: N_9  and  C_20
REMARK    2  A    between atoms: C_20  and  C_21
REMARK    3  A    between atoms: C_21  and  O_22
REMARK    4  A    between atoms: C_21  and  C_24
REMARK    5  A    between atoms: C_24  and  O_25
REMARK    6  A    between atoms: C_24  and  C_27
REMARK    7  A    between atoms: C_27  and  O_28
REMARK    8  A    between atoms: C_27  and  C_30
REMARK    9  A    between atoms: C_30  and  O_31
REMARK                            x       y       z     vdW  Elec       q    Type
REMARK                         _______ _______ _______ _____ _____    ______ ____
ROOT
ATOM      1  C   UNL     1     -47.255  -3.598 -23.531  0.00  0.00    +0.000 C 
ATOM      2  C   UNL     1     -47.151  -4.047 -24.949  0.00  0.00    +0.000 A 
ATOM      3  C   UNL     1     -46.892  -5.394 -25.208  0.00  0.00    +0.000 A 
ATOM      4  C   UNL     1     -46.788  -5.860 -26.521  0.00  0.00    +0.000 A 
ATOM      5  C   UNL     1     -46.954  -4.964 -27.612  0.00  0.00    +0.000 A 
ATOM      6  C   UNL     1     -47.200  -3.609 -27.334  0.00  0.00    +0.000 A 
ATOM      7  C   UNL     1     -47.301  -3.148 -26.019  0.00  0.00    +0.000 A 
ATOM      8  C   UNL     1     -47.572  -1.699 -25.789  0.00  0.00    +0.000 C 
ATOM      9  N   UNL     1     -46.861  -5.419 -28.906  0.00  0.00    +0.000 N 
ATOM     10  C   UNL     1     -46.556  -6.731 -29.139  0.00  0.00    +0.000 A 
ATOM     11  N   UNL     1     -46.397  -7.220 -30.398  0.00  0.00    +0.000 NA
ATOM     12  C   UNL     1     -46.101  -8.530 -30.610  0.00  0.00    +0.000 A 
ATOM     13  O   UNL     1     -45.963  -8.955 -31.786  0.00  0.00    +0.000 OA
ATOM     14  N   UNL     1     -45.953  -9.387 -29.562  0.00  0.00    +0.000 N 
ATOM     15  C   UNL     1     -46.088  -8.981 -28.271  0.00  0.00    +0.000 A 
ATOM     16  O   UNL     1     -45.936  -9.809 -27.335  0.00  0.00    +0.000 OA
ATOM     17  C   UNL     1     -46.388  -7.648 -28.000  0.00  0.00    +0.000 A 
ATOM     18  N   UNL     1     -46.515  -7.171 -26.741  0.00  0.00    +0.000 NA
ATOM     19  H   UNL     1     -45.741 -10.331 -29.744  0.00  0.00    +0.000 HD
ENDROOT
BRANCH   9  20
ATOM     20  C   UNL     1     -47.057  -4.510 -30.044  0.00  0.00    +0.000 C 
BRANCH  20  21
ATOM     21  C   UNL     1     -45.757  -3.815 -30.474  0.00  0.00    +0.000 C 
BRANCH  21  22
ATOM     22  O   UNL     1     -44.863  -4.739 -31.021  0.00  0.00    +0.000 OA
ATOM     23  H   UNL     1     -45.338  -5.556 -31.242  0.00  0.00    +0.000 HD
ENDBRANCH  21  22
BRANCH  21  24
ATOM     24  C   UNL     1     -46.010  -2.662 -31.444  0.00  0.00    +0.000 C 
BRANCH  24  25
ATOM     25  O   UNL     1     -45.441  -1.486 -30.946  0.00  0.00    +0.000 OA
ATOM     26  H   UNL     1     -45.308  -0.857 -31.673  0.00  0.00    +0.000 HD
ENDBRANCH  24  25
BRANCH  24  27
ATOM     27  C   UNL     1     -45.452  -2.966 -32.834  0.00  0.00    +0.000 C 
BRANCH  27  28
ATOM     28  O   UNL     1     -44.985  -1.798 -33.443  0.00  0.00    +0.000 OA
ATOM     29  H   UNL     1     -44.929  -1.933 -34.402  0.00  0.00    +0.000 HD
ENDBRANCH  27  28
BRANCH  27  30
ATOM     30  C   UNL     1     -46.518  -3.613 -33.699  0.00  0.00    +0.000 C 
BRANCH  30  31
ATOM     31  O   UNL     1     -47.681  -2.842 -33.677  0.00  0.00    +0.000 OA
ATOM     32  H   UNL     1     -47.606  -2.165 -32.987  0.00  0.00    +0.000 HD
ENDBRANCH  30  31
ENDBRANCH  27  30
ENDBRANCH  24  27
ENDBRANCH  21  24
ENDBRANCH  20  21
ENDBRANCH   9  20
TORSDOF 9
ENDMDL
MODEL 2
REMARK VINA RESULT:      -6.3      2.529      6.017
REMARK  Name = ZINC000003831424 ZINC03831424 PubChem-6328150
REMARK  9 active torsions:
REMARK  status: ('A' for Active; 'I' for Inactive)
REMARK    1  A    between atoms: N_9  and  C_20
REMARK    2  A    between atoms: C_20  and  C_21
REMARK    3  A    between atoms: C_21  and  O_22
REMARK    4  A    between atoms: C_21  and  C_24
REMARK    5  A    between atoms: C_24  and  O_25
REMARK    6  A    between atoms: C_24  and  C_27
REMARK    7  A    between atoms: C_27  and  O_28
REMARK    8  A    between atoms: C_27  and  C_30
REMARK    9  A    between atoms: C_30  and  O_31
REMARK                            x       y       z     vdW  Elec       q    Type
REMARK                         _______ _______ _______ _____ _____    ______ ____
ROOT
ATOM      1  C   UNL     1     -46.081  -9.475 -35.332  0.00  0.00    +0.000 C 
ATOM      2  C   UNL     1     -46.227  -8.255 -34.488  0.00  0.00    +0.000 A 
ATOM      3  C   UNL     1     -46.337  -8.407 -33.104  0.00  0.00    +0.000 A 
ATOM      4  C   UNL     1     -46.472  -7.290 -32.275  0.00  0.00    +0.000 A 
ATOM      5  C   UNL     1     -46.491  -5.984 -32.833  0.00  0.00    +0.000 A 
ATOM      6  C   UNL     1     -46.393  -5.850 -34.227  0.00  0.00    +0.000 A 
ATOM      7  C   UNL     1     -46.260  -6.968 -35.053  0.00  0.00    +0.000 A 
ATOM      8  C   UNL     1     -46.152  -6.760 -36.527  0.00  0.00    +0.000 C 
ATOM      9  N   UNL     1     -46.616  -4.882 -32.019  0.00  0.00    +0.000 N 
ATOM     10  C   UNL     1     -46.775  -5.053 -30.672  0.00  0.00    +0.000 A 
ATOM     11  N   UNL     1     -46.958  -4.001 -29.831  0.00  0.00    +0.000 NA
ATOM     12  C   UNL     1     -47.107  -4.190 -28.492  0.00  0.00    +0.000 A 
ATOM     13  O   UNL     1     -47.271  -3.198 -27.737  0.00  0.00    +0.000 OA
ATOM     14  N   UNL     1     -47.078  -5.444 -27.961  0.00  0.00    +0.000 N 
ATOM     15  C   UNL     1     -46.906  -6.552 -28.731  0.00  0.00    +0.000 A 
ATOM     16  O   UNL     1     -46.892  -7.691 -28.194  0.00  0.00    +0.000 OA
ATOM     17  C   UNL     1     -46.752  -6.411 -30.108  0.00  0.00    +0.000 A 
ATOM     18  N   UNL     1     -46.599  -7.471 -30.935  0.00  0.00    +0.000 NA
ATOM     19  H   UNL     1     -47.186  -5.553 -26.988  0.00  0.00    +0.000 HD
ENDROOT
BRANCH   9  20
ATOM     20  C   UNL     1     -46.610  -3.523 -32.579  0.00  0.00    +0.000 C 
BRANCH  20  21
ATOM     21  C   UNL     1     -45.193  -2.942 -32.698  0.00  0.00    +0.000 C 
BRANCH  21  22
ATOM     22  O   UNL     1     -44.784  -2.911 -34.033  0.00  0.00    +0.000 OA
ATOM     23  H   UNL     1     -43.839  -2.690 -34.076  0.00  0.00    +0.000 HD
ENDBRANCH  21  22
BRANCH  21  24
ATOM     24  C   UNL     1     -45.081  -1.557 -32.062  0.00  0.00    +0.000 C 
BRANCH  24  25
ATOM     25  O   UNL     1     -45.302  -1.647 -30.683  0.00  0.00    +0.000 OA
ATOM     26  H   UNL     1     -45.568  -0.778 -30.340  0.00  0.00    +0.000 HD
ENDBRANCH  24  25
BRANCH  24  27
ATOM     27  C   UNL     1     -43.718  -0.923 -32.333  0.00  0.00    +0.000 C 
BRANCH  27  28
ATOM     28  O   UNL     1     -43.640  -0.470 -33.653  0.00  0.00    +0.000 OA
ATOM     29  H   UNL     1     -43.264  -1.167 -34.213  0.00  0.00    +0.000 HD
ENDBRANCH  27  28
BRANCH  27  30
ATOM     30  C   UNL     1     -42.609  -1.923 -32.060  0.00  0.00    +0.000 C 
BRANCH  30  31
ATOM     31  O   UNL     1     -41.423  -1.249 -31.767  0.00  0.00    +0.000 OA
ATOM     32  H   UNL     1     -40.771  -1.427 -32.462  0.00  0.00    +0.000 HD
ENDBRANCH  30  31
ENDBRANCH  27  30
ENDBRANCH  24  27
ENDBRANCH  21  24
ENDBRANCH  20  21
ENDBRANCH   9  20
TORSDOF 9
ENDMDL
MODEL 3
REMARK VINA RESULT:      -6.3      1.571      2.239
REMARK  Name = ZINC000003831424 ZINC03831424 PubChem-6328150
REMARK  9 active torsions:
REMARK  status: ('A' for Active; 'I' for Inactive)
REMARK    1  A    between atoms: N_9  and  C_20
REMARK    2  A    between atoms: C_20  and  C_21
REMARK    3  A    between atoms: C_21  and  O_22
REMARK    4  A    between atoms: C_21  and  C_24
REMARK    5  A    between atoms: C_24  and  O_25
REMARK    6  A    between atoms: C_24  and  C_27
REMARK    7  A    between atoms: C_27  and  O_28
REMARK    8  A    between atoms: C_27  and  C_30
REMARK    9  A    between atoms: C_30  and  O_31
REMARK                            x       y       z     vdW  Elec       q    Type
REMARK                         _______ _______ _______ _____ _____    ______ ____
ROOT
ATOM      1  C   UNL     1     -46.673  -5.290 -24.765  0.00  0.00    +0.000 C 
ATOM      2  C   UNL     1     -46.786  -5.391 -26.248  0.00  0.00    +0.000 A 
ATOM      3  C   UNL     1     -46.561  -6.629 -26.854  0.00  0.00    +0.000 A 
ATOM      4  C   UNL     1     -46.659  -6.770 -28.241  0.00  0.00    +0.000 A 
ATOM      5  C   UNL     1     -46.996  -5.652 -29.051  0.00  0.00    +0.000 A 
ATOM      6  C   UNL     1     -47.205  -4.412 -28.426  0.00  0.00    +0.000 A 
ATOM      7  C   UNL     1     -47.104  -4.275 -27.040  0.00  0.00    +0.000 A 
ATOM      8  C   UNL     1     -47.346  -2.932 -26.435  0.00  0.00    +0.000 C 
ATOM      9  N   UNL     1     -47.100  -5.789 -30.415  0.00  0.00    +0.000 N 
ATOM     10  C   UNL     1     -46.827  -6.996 -30.996  0.00  0.00    +0.000 A 
ATOM     11  N   UNL     1     -46.862  -7.170 -32.343  0.00  0.00    +0.000 NA
ATOM     12  C   UNL     1     -46.593  -8.381 -32.902  0.00  0.00    +0.000 A 
ATOM     13  O   UNL     1     -46.636  -8.513 -34.152  0.00  0.00    +0.000 OA
ATOM     14  N   UNL     1     -46.280  -9.452 -32.121  0.00  0.00    +0.000 N 
ATOM     15  C   UNL     1     -46.217  -9.364 -30.764  0.00  0.00    +0.000 A 
ATOM     16  O   UNL     1     -45.918 -10.380 -30.085  0.00  0.00    +0.000 OA
ATOM     17  C   UNL     1     -46.480  -8.144 -30.144  0.00  0.00    +0.000 A 
ATOM     18  N   UNL     1     -46.414  -7.981 -28.803  0.00  0.00    +0.000 NA
ATOM     19  H   UNL     1     -46.093 -10.317 -32.550  0.00  0.00    +0.000 HD
ENDROOT
BRANCH   9  20
ATOM     20  C   UNL     1     -47.475  -4.648 -31.263  0.00  0.00    +0.000 C 
BRANCH  20  21
ATOM     21  C   UNL     1     -46.305  -4.138 -32.116  0.00  0.00    +0.000 C 
BRANCH  21  22
ATOM     22  O   UNL     1     -46.468  -4.515 -33.452  0.00  0.00    +0.000 OA
ATOM     23  H   UNL     1     -45.886  -3.977 -34.012  0.00  0.00    +0.000 HD
ENDBRANCH  21  22
BRANCH  21  24
ATOM     24  C   UNL     1     -46.117  -2.626 -31.996  0.00  0.00    +0.000 C 
BRANCH  24  25
ATOM     25  O   UNL     1     -45.746  -2.295 -30.689  0.00  0.00    +0.000 OA
ATOM     26  H   UNL     1     -45.413  -1.383 -30.668  0.00  0.00    +0.000 HD
ENDBRANCH  24  25
BRANCH  24  27
ATOM     27  C   UNL     1     -45.071  -2.111 -32.983  0.00  0.00    +0.000 C 
BRANCH  27  28
ATOM     28  O   UNL     1     -44.111  -3.094 -33.241  0.00  0.00    +0.000 OA
ATOM     29  H   UNL     1     -43.874  -3.540 -32.413  0.00  0.00    +0.000 HD
ENDBRANCH  27  28
BRANCH  27  30
ATOM     30  C   UNL     1     -44.403  -0.862 -32.438  0.00  0.00    +0.000 C 
BRANCH  30  31
ATOM     31  O   UNL     1     -43.223  -1.205 -31.776  0.00  0.00    +0.000 OA
ATOM     32  H   UNL     1     -42.535  -0.555 -31.985  0.00  0.00    +0.000 HD
ENDBRANCH  30  31
ENDBRANCH  27  30
ENDBRANCH  24  27
ENDBRANCH  21  24
ENDBRANCH  20  21
ENDBRANCH   9  20
TORSDOF 9
ENDMDL
