MODEL 1
REMARK VINA RESULT:      -5.7      0.000      0.000
REMARK  Name = ZINC000012706054 ZINC12706054 PubChem-25450279
REMARK  8 active torsions:
REMARK  status: ('A' for Active; 'I' for Inactive)
REMARK    1  A    between atoms: C_2  and  C_3
REMARK    2  A    between atoms: C_2  and  N_30
REMARK    3  A    between atoms: C_4  and  C_5
REMARK    4  A    between atoms: C_4  and  N_29
REMARK    5  A    between atoms: C_9  and  N_30
REMARK    6  A    between atoms: C_15  and  C_16
REMARK    7  A    between atoms: C_19  and  O_28
REMARK    8  A    between atoms: C_20  and  O_27
REMARK                            x       y       z     vdW  Elec       q    Type
REMARK                         _______ _______ _______ _____ _____    ______ ____
ROOT
ATOM      1  C   UNL     1     -46.162  -5.590 -30.649  0.00  0.00    +0.000 C 
ATOM      2  O   UNL     1     -47.318  -5.924 -30.269  0.00  0.00    +0.000 OA
ATOM      3  N   UNL     1     -46.005  -4.919 -31.911  0.00  0.00    +0.000 N 
ENDROOT
BRANCH   3   4
ATOM      4  C   UNL     1     -45.315  -3.646 -31.997  0.00  0.00    +0.000 A 
ATOM      5  C   UNL     1     -45.864  -2.486 -31.428  0.00  0.00    +0.000 A 
ATOM      6  C   UNL     1     -45.192  -1.263 -31.508  0.00  0.00    +0.000 A 
ATOM      7  C   UNL     1     -43.957  -1.184 -32.154  0.00  0.00    +0.000 A 
ATOM      8  C   UNL     1     -43.392  -2.333 -32.720  0.00  0.00    +0.000 A 
ATOM      9  C   UNL     1     -44.068  -3.553 -32.639  0.00  0.00    +0.000 A 
ATOM     10 CL   UNL     1     -41.843  -2.262 -33.537  0.00  0.00    +0.000 Cl
ATOM     11  F   UNL     1     -43.313   0.008 -32.221  0.00  0.00    +0.000 F 
ENDBRANCH   3   4
BRANCH   1  12
ATOM     12  C   UNL     1     -44.991  -5.946 -29.821  0.00  0.00    +0.000 A 
ATOM     13  C   UNL     1     -45.122  -6.087 -28.437  0.00  0.00    +0.000 A 
ATOM     14  C   UNL     1     -44.021  -6.441 -27.658  0.00  0.00    +0.000 A 
ATOM     15  C   UNL     1     -42.764  -6.665 -28.247  0.00  0.00    +0.000 A 
ATOM     16  C   UNL     1     -42.627  -6.531 -29.651  0.00  0.00    +0.000 A 
ATOM     17  C   UNL     1     -43.744  -6.178 -30.415  0.00  0.00    +0.000 A 
BRANCH  16  19
ATOM     18  C   UNL     1     -40.831  -5.802 -31.237  0.00  0.00    +0.000 C 
ATOM     19  O   UNL     1     -41.421  -6.733 -30.340  0.00  0.00    +0.000 OA
ENDBRANCH  16  19
BRANCH  15  21
ATOM     20  C   UNL     1     -41.524  -6.602 -26.100  0.00  0.00    +0.000 C 
ATOM     21  O   UNL     1     -41.667  -7.017 -27.452  0.00  0.00    +0.000 OA
ENDBRANCH  15  21
ENDBRANCH   1  12
BRANCH   3  23
ATOM     22  C   UNL     1     -47.103  -4.599 -34.122  0.00  0.00    +0.000 C 
ATOM     23  C   UNL     1     -46.598  -5.584 -33.076  0.00  0.00    +0.000 C 
BRANCH  23  24
ATOM     24  C   UNL     1     -45.703  -6.655 -33.636  0.00  0.00    +0.000 C 
ATOM     25  O   UNL     1     -44.687  -6.344 -34.311  0.00  0.00    +0.000 OA
ATOM     26  N   UNL     1     -45.982  -8.039 -33.398  0.00  0.00    +0.000 NA
BRANCH  26  27
ATOM     27  C   UNL     1     -47.101  -8.503 -32.588  0.00  0.00    +0.000 C 
BRANCH  27  28
ATOM     28  C   UNL     1     -46.622  -9.476 -31.524  0.00  0.00    +0.000 C 
ATOM     29  C   UNL     1     -47.472  -9.330 -30.287  0.00  0.00    +0.000 C 
ATOM     30  C   UNL     1     -46.501  -9.538 -29.164  0.00  0.00    +0.000 C 
ATOM     31  C   UNL     1     -45.158  -9.639 -29.852  0.00  0.00    +0.000 C 
ATOM     32  O   UNL     1     -45.294  -9.192 -31.176  0.00  0.00    +0.000 OA
ENDBRANCH  27  28
ENDBRANCH  26  27
ENDBRANCH  23  24
ENDBRANCH   3  23
TORSDOF 8
ENDMDL
MODEL 2
REMARK VINA RESULT:      -5.6      0.958      1.935
REMARK  Name = ZINC000012706054 ZINC12706054 PubChem-25450279
REMARK  8 active torsions:
REMARK  status: ('A' for Active; 'I' for Inactive)
REMARK    1  A    between atoms: C_2  and  C_3
REMARK    2  A    between atoms: C_2  and  N_30
REMARK    3  A    between atoms: C_4  and  C_5
REMARK    4  A    between atoms: C_4  and  N_29
REMARK    5  A    between atoms: C_9  and  N_30
REMARK    6  A    between atoms: C_15  and  C_16
REMARK    7  A    between atoms: C_19  and  O_28
REMARK    8  A    between atoms: C_20  and  O_27
REMARK                            x       y       z     vdW  Elec       q    Type
REMARK                         _______ _______ _______ _____ _____    ______ ____
ROOT
ATOM      1  C   UNL     1     -46.423  -5.470 -30.650  0.00  0.00    +0.000 C 
ATOM      2  O   UNL     1     -47.630  -5.716 -30.377  0.00  0.00    +0.000 OA
ATOM      3  N   UNL     1     -46.098  -4.872 -31.916  0.00  0.00    +0.000 N 
ENDROOT
BRANCH   3   4
ATOM      4  C   UNL     1     -45.323  -3.648 -31.985  0.00  0.00    +0.000 A 
ATOM      5  C   UNL     1     -45.836  -2.438 -31.488  0.00  0.00    +0.000 A 
ATOM      6  C   UNL     1     -45.083  -1.263 -31.550  0.00  0.00    +0.000 A 
ATOM      7  C   UNL     1     -43.803  -1.281 -32.107  0.00  0.00    +0.000 A 
ATOM      8  C   UNL     1     -43.275  -2.479 -32.601  0.00  0.00    +0.000 A 
ATOM      9  C   UNL     1     -44.032  -3.652 -32.538  0.00  0.00    +0.000 A 
ATOM     10 CL   UNL     1     -41.670  -2.529 -33.306  0.00  0.00    +0.000 Cl
ATOM     11  F   UNL     1     -43.080  -0.134 -32.159  0.00  0.00    +0.000 F 
ENDBRANCH   3   4
BRANCH   1  12
ATOM     12  C   UNL     1     -45.366  -5.854 -29.692  0.00  0.00    +0.000 A 
ATOM     13  C   UNL     1     -44.036  -5.948 -30.109  0.00  0.00    +0.000 A 
ATOM     14  C   UNL     1     -43.035  -6.292 -29.200  0.00  0.00    +0.000 A 
ATOM     15  C   UNL     1     -43.344  -6.547 -27.852  0.00  0.00    +0.000 A 
ATOM     16  C   UNL     1     -44.690  -6.446 -27.422  0.00  0.00    +0.000 A 
ATOM     17  C   UNL     1     -45.678  -6.096 -28.348  0.00  0.00    +0.000 A 
BRANCH  16  19
ATOM     18  C   UNL     1     -45.498  -7.941 -25.583  0.00  0.00    +0.000 C 
ATOM     19  O   UNL     1     -45.106  -6.678 -26.102  0.00  0.00    +0.000 OA
ENDBRANCH  16  19
BRANCH  15  21
ATOM     20  C   UNL     1     -41.843  -8.222 -26.805  0.00  0.00    +0.000 C 
ATOM     21  O   UNL     1     -42.330  -6.894 -26.952  0.00  0.00    +0.000 OA
ENDBRANCH  15  21
ENDBRANCH   1  12
BRANCH   3  23
ATOM     22  C   UNL     1     -47.046  -4.590 -34.201  0.00  0.00    +0.000 C 
ATOM     23  C   UNL     1     -46.613  -5.557 -33.106  0.00  0.00    +0.000 C 
BRANCH  23  24
ATOM     24  C   UNL     1     -45.684  -6.637 -33.587  0.00  0.00    +0.000 C 
ATOM     25  O   UNL     1     -44.652  -6.341 -34.244  0.00  0.00    +0.000 OA
ATOM     26  N   UNL     1     -45.948  -8.014 -33.293  0.00  0.00    +0.000 NA
BRANCH  26  27
ATOM     27  C   UNL     1     -47.085  -8.458 -32.497  0.00  0.00    +0.000 C 
BRANCH  27  28
ATOM     28  C   UNL     1     -46.636  -9.434 -31.423  0.00  0.00    +0.000 C 
ATOM     29  C   UNL     1     -47.539  -9.314 -30.222  0.00  0.00    +0.000 C 
ATOM     30  C   UNL     1     -46.613  -9.518 -29.060  0.00  0.00    +0.000 C 
ATOM     31  C   UNL     1     -45.241  -9.590 -29.692  0.00  0.00    +0.000 C 
ATOM     32  O   UNL     1     -45.328  -9.132 -31.016  0.00  0.00    +0.000 OA
ENDBRANCH  27  28
ENDBRANCH  26  27
ENDBRANCH  23  24
ENDBRANCH   3  23
TORSDOF 8
ENDMDL
MODEL 3
REMARK VINA RESULT:      -5.4      1.239      2.004
REMARK  Name = ZINC000012706054 ZINC12706054 PubChem-25450279
REMARK  8 active torsions:
REMARK  status: ('A' for Active; 'I' for Inactive)
REMARK    1  A    between atoms: C_2  and  C_3
REMARK    2  A    between atoms: C_2  and  N_30
REMARK    3  A    between atoms: C_4  and  C_5
REMARK    4  A    between atoms: C_4  and  N_29
REMARK    5  A    between atoms: C_9  and  N_30
REMARK    6  A    between atoms: C_15  and  C_16
REMARK    7  A    between atoms: C_19  and  O_28
REMARK    8  A    between atoms: C_20  and  O_27
REMARK                            x       y       z     vdW  Elec       q    Type
REMARK                         _______ _______ _______ _____ _____    ______ ____
ROOT
ATOM      1  C   UNL     1     -45.564  -5.709 -30.392  0.00  0.00    +0.000 C 
ATOM      2  O   UNL     1     -46.587  -5.939 -29.690  0.00  0.00    +0.000 OA
ATOM      3  N   UNL     1     -45.698  -4.923 -31.588  0.00  0.00    +0.000 N 
ENDROOT
BRANCH   3   4
ATOM      4  C   UNL     1     -44.881  -3.743 -31.799  0.00  0.00    +0.000 A 
ATOM      5  C   UNL     1     -45.331  -2.472 -31.406  0.00  0.00    +0.000 A 
ATOM      6  C   UNL     1     -44.537  -1.339 -31.605  0.00  0.00    +0.000 A 
ATOM      7  C   UNL     1     -43.279  -1.461 -32.197  0.00  0.00    +0.000 A 
ATOM      8  C   UNL     1     -42.813  -2.721 -32.588  0.00  0.00    +0.000 A 
ATOM      9  C   UNL     1     -43.610  -3.851 -32.388  0.00  0.00    +0.000 A 
ATOM     10 CL   UNL     1     -41.236  -2.903 -33.334  0.00  0.00    +0.000 Cl
ATOM     11  F   UNL     1     -42.517  -0.354 -32.382  0.00  0.00    +0.000 F 
ENDBRANCH   3   4
BRANCH   1  12
ATOM     12  C   UNL     1     -44.266  -6.299 -30.005  0.00  0.00    +0.000 A 
ATOM     13  C   UNL     1     -43.611  -7.188 -30.862  0.00  0.00    +0.000 A 
ATOM     14  C   UNL     1     -42.377  -7.730 -30.505  0.00  0.00    +0.000 A 
ATOM     15  C   UNL     1     -41.768  -7.392 -29.283  0.00  0.00    +0.000 A 
ATOM     16  C   UNL     1     -42.424  -6.485 -28.414  0.00  0.00    +0.000 A 
ATOM     17  C   UNL     1     -43.660  -5.950 -28.792  0.00  0.00    +0.000 A 
BRANCH  16  19
ATOM     18  C   UNL     1     -41.985  -6.834 -25.974  0.00  0.00    +0.000 C 
ATOM     19  O   UNL     1     -41.906  -6.079 -27.175  0.00  0.00    +0.000 OA
ENDBRANCH  16  19
BRANCH  15  21
ATOM     20  C   UNL     1     -39.878  -8.937 -29.719  0.00  0.00    +0.000 C 
ATOM     21  O   UNL     1     -40.531  -7.946 -28.937  0.00  0.00    +0.000 OA
ENDBRANCH  15  21
ENDBRANCH   1  12
BRANCH   3  23
ATOM     22  C   UNL     1     -47.360  -4.219 -33.303  0.00  0.00    +0.000 C 
ATOM     23  C   UNL     1     -46.710  -5.373 -32.549  0.00  0.00    +0.000 C 
BRANCH  23  24
ATOM     24  C   UNL     1     -46.200  -6.469 -33.442  0.00  0.00    +0.000 C 
ATOM     25  O   UNL     1     -45.424  -6.200 -34.397  0.00  0.00    +0.000 OA
ATOM     26  N   UNL     1     -46.573  -7.832 -33.214  0.00  0.00    +0.000 NA
BRANCH  26  27
ATOM     27  C   UNL     1     -47.424  -8.255 -32.109  0.00  0.00    +0.000 C 
BRANCH  27  28
ATOM     28  C   UNL     1     -46.642  -9.124 -31.137  0.00  0.00    +0.000 C 
ATOM     29  C   UNL     1     -45.813 -10.121 -31.906  0.00  0.00    +0.000 C 
ATOM     30  C   UNL     1     -45.859 -11.352 -31.052  0.00  0.00    +0.000 C 
ATOM     31  C   UNL     1     -46.829 -10.998 -29.946  0.00  0.00    +0.000 C 
ATOM     32  O   UNL     1     -47.525  -9.835 -30.311  0.00  0.00    +0.000 OA
ENDBRANCH  27  28
ENDBRANCH  26  27
ENDBRANCH  23  24
ENDBRANCH   3  23
TORSDOF 8
ENDMDL
