MODEL 1
REMARK VINA RESULT:      -7.1      0.000      0.000
REMARK  Name = ZINC000012772569 CSC027018696 MCULE-2308435649 MolPort-005-665-378
REMARK  4 active torsions:
REMARK  status: ('A' for Active; 'I' for Inactive)
REMARK    1  A    between atoms: C_1  and  C_19
REMARK    2  A    between atoms: N_18  and  C_23
REMARK    3  A    between atoms: C_22  and  O_32
REMARK    4  A    between atoms: C_25  and  N_28
REMARK                            x       y       z     vdW  Elec       q    Type
REMARK                         _______ _______ _______ _____ _____    ______ ____
ROOT
ATOM      1  C   UNL     1     -45.999  -7.561 -27.198  0.00  0.00    +0.000 A 
ATOM      2  C   UNL     1     -46.551  -7.199 -28.435  0.00  0.00    +0.000 A 
ATOM      3  C   UNL     1     -45.771  -6.545 -29.394  0.00  0.00    +0.000 A 
ATOM      4  C   UNL     1     -44.427  -6.239 -29.118  0.00  0.00    +0.000 A 
ATOM      5  C   UNL     1     -43.676  -5.582 -30.102  0.00  0.00    +0.000 A 
ATOM      6  N   UNL     1     -44.259  -5.257 -31.299  0.00  0.00    +0.000 N 
ATOM      7  C   UNL     1     -45.572  -5.575 -31.541  0.00  0.00    +0.000 A 
ATOM      8  N   UNL     1     -46.309  -6.206 -30.589  0.00  0.00    +0.000 NA
ATOM      9  C   UNL     1     -46.235  -5.219 -32.838  0.00  0.00    +0.000 C 
ATOM     10  C   UNL     1     -46.829  -3.816 -32.789  0.00  0.00    +0.000 C 
ATOM     11  C   UNL     1     -45.788  -2.751 -33.110  0.00  0.00    +0.000 C 
ATOM     12  C   UNL     1     -44.914  -2.472 -31.896  0.00  0.00    +0.000 C 
ATOM     13  C   UNL     1     -43.504  -3.034 -32.071  0.00  0.00    +0.000 C 
ATOM     14  C   UNL     1     -43.485  -4.543 -32.317  0.00  0.00    +0.000 C 
ATOM     15  O   UNL     1     -42.467  -5.291 -29.884  0.00  0.00    +0.000 OA
ATOM     16  C   UNL     1     -43.878  -6.587 -27.876  0.00  0.00    +0.000 A 
ATOM     17  C   UNL     1     -44.662  -7.241 -26.922  0.00  0.00    +0.000 A 
ENDROOT
BRANCH   1  19
ATOM     18  N   UNL     1     -47.756  -7.513 -25.352  0.00  0.00    +0.000 N 
ATOM     19  C   UNL     1     -46.839  -8.235 -26.185  0.00  0.00    +0.000 C 
ATOM     20  O   UNL     1     -46.790  -9.489 -26.079  0.00  0.00    +0.000 OA
ATOM     21  H   UNL     1     -48.620  -7.942 -25.158  0.00  0.00    +0.000 HD
BRANCH  18  23
ATOM     22  C   UNL     1     -47.240  -6.117 -23.402  0.00  0.00    +0.000 A 
ATOM     23  C   UNL     1     -47.526  -6.220 -24.773  0.00  0.00    +0.000 A 
ATOM     24  C   UNL     1     -47.528  -5.064 -25.569  0.00  0.00    +0.000 A 
ATOM     25  C   UNL     1     -47.276  -3.805 -25.010  0.00  0.00    +0.000 A 
ATOM     26  C   UNL     1     -47.006  -3.708 -23.639  0.00  0.00    +0.000 A 
ATOM     27  C   UNL     1     -46.984  -4.855 -22.842  0.00  0.00    +0.000 A 
BRANCH  25  28
ATOM     28  N   UNL     1     -47.299  -2.633 -25.835  0.00  0.00    +0.000 N 
ATOM     29  O   UNL     1     -47.424  -2.748 -27.200  0.00  0.00    +0.000 OA
ATOM     30  O   UNL     1     -47.212  -1.497 -25.326  0.00  0.00    +0.000 OA
ENDBRANCH  25  28
BRANCH  22  32
ATOM     31  C   UNL     1     -46.008  -7.923 -22.240  0.00  0.00    +0.000 C 
ATOM     32  O   UNL     1     -47.215  -7.275 -22.618  0.00  0.00    +0.000 OA
ENDBRANCH  22  32
ENDBRANCH  18  23
ENDBRANCH   1  19
TORSDOF 4
ENDMDL
MODEL 2
REMARK VINA RESULT:      -6.7     10.775     15.194
REMARK  Name = ZINC000012772569 CSC027018696 MCULE-2308435649 MolPort-005-665-378
REMARK  4 active torsions:
REMARK  status: ('A' for Active; 'I' for Inactive)
REMARK    1  A    between atoms: C_1  and  C_19
REMARK    2  A    between atoms: N_18  and  C_23
REMARK    3  A    between atoms: C_22  and  O_32
REMARK    4  A    between atoms: C_25  and  N_28
REMARK                            x       y       z     vdW  Elec       q    Type
REMARK                         _______ _______ _______ _____ _____    ______ ____
ROOT
ATOM      1  C   UNL     1     -44.997 -18.787 -23.572  0.00  0.00    +0.000 A 
ATOM      2  C   UNL     1     -43.914 -19.560 -23.129  0.00  0.00    +0.000 A 
ATOM      3  C   UNL     1     -43.560 -19.574 -21.777  0.00  0.00    +0.000 A 
ATOM      4  C   UNL     1     -44.286 -18.804 -20.851  0.00  0.00    +0.000 A 
ATOM      5  C   UNL     1     -43.901 -18.842 -19.504  0.00  0.00    +0.000 A 
ATOM      6  N   UNL     1     -42.841 -19.620 -19.121  0.00  0.00    +0.000 N 
ATOM      7  C   UNL     1     -42.156 -20.366 -20.047  0.00  0.00    +0.000 A 
ATOM      8  N   UNL     1     -42.518 -20.330 -21.356  0.00  0.00    +0.000 NA
ATOM      9  C   UNL     1     -40.984 -21.215 -19.654  0.00  0.00    +0.000 C 
ATOM     10  C   UNL     1     -39.687 -20.417 -19.684  0.00  0.00    +0.000 C 
ATOM     11  C   UNL     1     -39.470 -19.643 -18.390  0.00  0.00    +0.000 C 
ATOM     12  C   UNL     1     -40.305 -18.370 -18.380  0.00  0.00    +0.000 C 
ATOM     13  C   UNL     1     -41.479 -18.471 -17.408  0.00  0.00    +0.000 C 
ATOM     14  C   UNL     1     -42.418 -19.637 -17.719  0.00  0.00    +0.000 C 
ATOM     15  O   UNL     1     -44.532 -18.160 -18.649  0.00  0.00    +0.000 OA
ATOM     16  C   UNL     1     -45.360 -18.020 -21.293  0.00  0.00    +0.000 A 
ATOM     17  C   UNL     1     -45.709 -18.010 -22.646  0.00  0.00    +0.000 A 
ENDROOT
BRANCH   1  19
ATOM     18  N   UNL     1     -44.765 -17.829 -25.922  0.00  0.00    +0.000 N 
ATOM     19  C   UNL     1     -45.350 -18.765 -25.007  0.00  0.00    +0.000 C 
ATOM     20  O   UNL     1     -46.152 -19.626 -25.457  0.00  0.00    +0.000 OA
ATOM     21  H   UNL     1     -44.549 -18.158 -26.824  0.00  0.00    +0.000 HD
BRANCH  18  23
ATOM     22  C   UNL     1     -43.183 -16.099 -25.201  0.00  0.00    +0.000 A 
ATOM     23  C   UNL     1     -44.468 -16.453 -25.642  0.00  0.00    +0.000 A 
ATOM     24  C   UNL     1     -45.427 -15.451 -25.857  0.00  0.00    +0.000 A 
ATOM     25  C   UNL     1     -45.130 -14.106 -25.609  0.00  0.00    +0.000 A 
ATOM     26  C   UNL     1     -43.850 -13.761 -25.156  0.00  0.00    +0.000 A 
ATOM     27  C   UNL     1     -42.884 -14.749 -24.956  0.00  0.00    +0.000 A 
BRANCH  25  28
ATOM     28  N   UNL     1     -46.127 -13.098 -25.818  0.00  0.00    +0.000 N 
ATOM     29  O   UNL     1     -46.201 -12.010 -24.977  0.00  0.00    +0.000 OA
ATOM     30  O   UNL     1     -46.933 -13.189 -26.766  0.00  0.00    +0.000 OA
ENDBRANCH  25  28
BRANCH  22  32
ATOM     31  C   UNL     1     -41.270 -17.062 -23.959  0.00  0.00    +0.000 C 
ATOM     32  O   UNL     1     -42.223 -17.100 -25.012  0.00  0.00    +0.000 OA
ENDBRANCH  22  32
ENDBRANCH  18  23
ENDBRANCH   1  19
TORSDOF 4
ENDMDL
MODEL 3
REMARK VINA RESULT:      -6.6      3.489      7.295
REMARK  Name = ZINC000012772569 CSC027018696 MCULE-2308435649 MolPort-005-665-378
REMARK  4 active torsions:
REMARK  status: ('A' for Active; 'I' for Inactive)
REMARK    1  A    between atoms: C_1  and  C_19
REMARK    2  A    between atoms: N_18  and  C_23
REMARK    3  A    between atoms: C_22  and  O_32
REMARK    4  A    between atoms: C_25  and  N_28
REMARK                            x       y       z     vdW  Elec       q    Type
REMARK                         _______ _______ _______ _____ _____    ______ ____
ROOT
ATOM      1  C   UNL     1     -46.269  -5.780 -29.059  0.00  0.00    +0.000 A 
ATOM      2  C   UNL     1     -46.887  -7.006 -28.772  0.00  0.00    +0.000 A 
ATOM      3  C   UNL     1     -46.119  -8.161 -28.595  0.00  0.00    +0.000 A 
ATOM      4  C   UNL     1     -44.720  -8.101 -28.712  0.00  0.00    +0.000 A 
ATOM      5  C   UNL     1     -43.984  -9.279 -28.530  0.00  0.00    +0.000 A 
ATOM      6  N   UNL     1     -44.634 -10.451 -28.243  0.00  0.00    +0.000 N 
ATOM      7  C   UNL     1     -46.001 -10.476 -28.129  0.00  0.00    +0.000 A 
ATOM      8  N   UNL     1     -46.723  -9.339 -28.311  0.00  0.00    +0.000 NA
ATOM      9  C   UNL     1     -46.736 -11.748 -27.827  0.00  0.00    +0.000 C 
ATOM     10  C   UNL     1     -47.064 -12.514 -29.104  0.00  0.00    +0.000 C 
ATOM     11  C   UNL     1     -45.895 -13.379 -29.559  0.00  0.00    +0.000 C 
ATOM     12  C   UNL     1     -44.852 -12.537 -30.278  0.00  0.00    +0.000 C 
ATOM     13  C   UNL     1     -43.593 -12.350 -29.434  0.00  0.00    +0.000 C 
ATOM     14  C   UNL     1     -43.868 -11.689 -28.083  0.00  0.00    +0.000 C 
ATOM     15  O   UNL     1     -42.725  -9.259 -28.632  0.00  0.00    +0.000 OA
ATOM     16  C   UNL     1     -44.101  -6.880 -29.013  0.00  0.00    +0.000 A 
ATOM     17  C   UNL     1     -44.874  -5.728 -29.188  0.00  0.00    +0.000 A 
ENDROOT
BRANCH   1  19
ATOM     18  N   UNL     1     -47.208  -3.932 -30.542  0.00  0.00    +0.000 N 
ATOM     19  C   UNL     1     -47.092  -4.570 -29.262  0.00  0.00    +0.000 C 
ATOM     20  O   UNL     1     -47.756  -4.106 -28.297  0.00  0.00    +0.000 OA
ATOM     21  H   UNL     1     -48.092  -3.574 -30.786  0.00  0.00    +0.000 HD
BRANCH  18  23
ATOM     22  C   UNL     1     -46.040  -4.670 -32.568  0.00  0.00    +0.000 A 
ATOM     23  C   UNL     1     -46.150  -3.768 -31.498  0.00  0.00    +0.000 A 
ATOM     24  C   UNL     1     -45.261  -2.686 -31.409  0.00  0.00    +0.000 A 
ATOM     25  C   UNL     1     -44.246  -2.510 -32.357  0.00  0.00    +0.000 A 
ATOM     26  C   UNL     1     -44.132  -3.422 -33.414  0.00  0.00    +0.000 A 
ATOM     27  C   UNL     1     -45.023  -4.491 -33.521  0.00  0.00    +0.000 A 
BRANCH  25  28
ATOM     28  N   UNL     1     -43.336  -1.408 -32.242  0.00  0.00    +0.000 N 
ATOM     29  O   UNL     1     -43.803  -0.115 -32.286  0.00  0.00    +0.000 OA
ATOM     30  O   UNL     1     -42.113  -1.608 -32.092  0.00  0.00    +0.000 OA
ENDBRANCH  25  28
BRANCH  22  32
ATOM     31  C   UNL     1     -46.554  -7.092 -32.515  0.00  0.00    +0.000 C 
ATOM     32  O   UNL     1     -46.945  -5.733 -32.665  0.00  0.00    +0.000 OA
ENDBRANCH  22  32
ENDBRANCH  18  23
ENDBRANCH   1  19
TORSDOF 4
ENDMDL
