MODEL 1
REMARK VINA RESULT:      -7.6      0.000      0.000
REMARK  Name = ZINC000013148091 ZINC13148091 PubChem-25726336
REMARK  5 active torsions:
REMARK  status: ('A' for Active; 'I' for Inactive)
REMARK    1  A    between atoms: C_1  and  C_6
REMARK    2  A    between atoms: C_1  and  C_17
REMARK    3  A    between atoms: C_1  and  C_32
REMARK    4  A    between atoms: C_2  and  C_14
REMARK    5  A    between atoms: C_21  and  C_26
REMARK                            x       y       z     vdW  Elec       q    Type
REMARK                         _______ _______ _______ _____ _____    ______ ____
ROOT
ATOM      1  C   UNL     1     -44.683 -18.288 -22.706  0.00  0.00    +0.000 C 
ENDROOT
BRANCH   1   6
ATOM      2  C   UNL     1     -43.382 -18.922 -26.170  0.00  0.00    +0.000 C 
ATOM      3  N   UNL     1     -44.572 -19.388 -25.928  0.00  0.00    +0.000 NA
ATOM      4  C   UNL     1     -45.491 -18.729 -25.050  0.00  0.00    +0.000 C 
ATOM      5  O   UNL     1     -46.702 -19.069 -25.056  0.00  0.00    +0.000 OA
ATOM      6  C   UNL     1     -45.015 -17.673 -24.083  0.00  0.00    +0.000 C 
ATOM      7  C   UNL     1     -43.803 -16.990 -24.659  0.00  0.00    +0.000 C 
ATOM      8  O   UNL     1     -43.504 -15.824 -24.296  0.00  0.00    +0.000 OA
ATOM      9  N   UNL     1     -42.974 -17.671 -25.600  0.00  0.00    +0.000 N 
ATOM     10  H   UNL     1     -42.110 -17.277 -25.861  0.00  0.00    +0.000 HD
BRANCH   2  14
ATOM     11  C   UNL     1     -40.753 -21.042 -28.794  0.00  0.00    +0.000 A 
ATOM     12  C   UNL     1     -42.025 -20.668 -29.234  0.00  0.00    +0.000 A 
ATOM     13  C   UNL     1     -42.881 -19.972 -28.379  0.00  0.00    +0.000 A 
ATOM     14  C   UNL     1     -42.476 -19.647 -27.076  0.00  0.00    +0.000 A 
ATOM     15  C   UNL     1     -41.199 -20.029 -26.643  0.00  0.00    +0.000 A 
ATOM     16  C   UNL     1     -40.340 -20.722 -27.501  0.00  0.00    +0.000 A 
ENDBRANCH   2  14
ENDBRANCH   1   6
BRANCH   1  17
ATOM     17  C   UNL     1     -43.169 -18.489 -22.474  0.00  0.00    +0.000 C 
ATOM     18  C   UNL     1     -42.836 -19.939 -22.292  0.00  0.00    +0.000 C 
ATOM     19  O   UNL     1     -42.990 -20.745 -23.245  0.00  0.00    +0.000 OA
ATOM     20  N   UNL     1     -42.367 -20.415 -21.032  0.00  0.00    +0.000 N 
ATOM     21  C   UNL     1     -42.077 -19.518 -19.954  0.00  0.00    +0.000 C 
ATOM     22  N   UNL     1     -42.181 -18.233 -20.125  0.00  0.00    +0.000 NA
ATOM     23  C   UNL     1     -42.611 -17.644 -21.357  0.00  0.00    +0.000 C 
ATOM     24  O   UNL     1     -42.542 -16.396 -21.500  0.00  0.00    +0.000 OA
ATOM     25  H   UNL     1     -42.240 -21.383 -20.900  0.00  0.00    +0.000 HD
BRANCH  21  26
ATOM     26  C   UNL     1     -41.616 -20.057 -18.660  0.00  0.00    +0.000 A 
ATOM     27  C   UNL     1     -41.735 -19.285 -17.495  0.00  0.00    +0.000 A 
ATOM     28  C   UNL     1     -41.308 -19.793 -16.265  0.00  0.00    +0.000 A 
ATOM     29  C   UNL     1     -40.753 -21.072 -16.191  0.00  0.00    +0.000 A 
ATOM     30  C   UNL     1     -40.627 -21.847 -17.347  0.00  0.00    +0.000 A 
ATOM     31  C   UNL     1     -41.057 -21.341 -18.578  0.00  0.00    +0.000 A 
ENDBRANCH  21  26
ENDBRANCH   1  17
BRANCH   1  32
ATOM     32  C   UNL     1     -45.363 -17.593 -21.551  0.00  0.00    +0.000 A 
ATOM     33  C   UNL     1     -45.623 -16.213 -21.580  0.00  0.00    +0.000 A 
ATOM     34  C   UNL     1     -46.256 -15.592 -20.501  0.00  0.00    +0.000 A 
ATOM     35  C   UNL     1     -46.631 -16.348 -19.387  0.00  0.00    +0.000 A 
ATOM     36  C   UNL     1     -46.380 -17.722 -19.355  0.00  0.00    +0.000 A 
ATOM     37  C   UNL     1     -45.749 -18.345 -20.436  0.00  0.00    +0.000 A 
ATOM     38 CL   UNL     1     -47.409 -15.574 -18.026  0.00  0.00    +0.000 Cl
ENDBRANCH   1  32
TORSDOF 5
ENDMDL
MODEL 2
REMARK VINA RESULT:      -7.5     11.753     15.143
REMARK  Name = ZINC000013148091 ZINC13148091 PubChem-25726336
REMARK  5 active torsions:
REMARK  status: ('A' for Active; 'I' for Inactive)
REMARK    1  A    between atoms: C_1  and  C_6
REMARK    2  A    between atoms: C_1  and  C_17
REMARK    3  A    between atoms: C_1  and  C_32
REMARK    4  A    between atoms: C_2  and  C_14
REMARK    5  A    between atoms: C_21  and  C_26
REMARK                            x       y       z     vdW  Elec       q    Type
REMARK                         _______ _______ _______ _____ _____    ______ ____
ROOT
ATOM      1  C   UNL     1     -45.043  -6.995 -30.419  0.00  0.00    +0.000 C 
ENDROOT
BRANCH   1   6
ATOM      2  C   UNL     1     -47.049  -5.314 -27.728  0.00  0.00    +0.000 C 
ATOM      3  N   UNL     1     -47.315  -4.931 -28.942  0.00  0.00    +0.000 NA
ATOM      4  C   UNL     1     -47.242  -5.821 -30.061  0.00  0.00    +0.000 C 
ATOM      5  O   UNL     1     -47.756  -5.477 -31.157  0.00  0.00    +0.000 OA
ATOM      6  C   UNL     1     -46.510  -7.136 -29.958  0.00  0.00    +0.000 C 
ATOM      7  C   UNL     1     -46.568  -7.619 -28.533  0.00  0.00    +0.000 C 
ATOM      8  O   UNL     1     -46.450  -8.844 -28.276  0.00  0.00    +0.000 OA
ATOM      9  N   UNL     1     -46.731  -6.687 -27.464  0.00  0.00    +0.000 N 
ATOM     10  H   UNL     1     -46.624  -6.990 -26.534  0.00  0.00    +0.000 HD
BRANCH   2  14
ATOM     11  C   UNL     1     -47.309  -2.518 -24.502  0.00  0.00    +0.000 A 
ATOM     12  C   UNL     1     -47.091  -3.871 -24.236  0.00  0.00    +0.000 A 
ATOM     13  C   UNL     1     -47.001  -4.783 -25.289  0.00  0.00    +0.000 A 
ATOM     14  C   UNL     1     -47.133  -4.352 -26.616  0.00  0.00    +0.000 A 
ATOM     15  C   UNL     1     -47.354  -2.991 -26.874  0.00  0.00    +0.000 A 
ATOM     16  C   UNL     1     -47.440  -2.078 -25.819  0.00  0.00    +0.000 A 
ENDBRANCH   2  14
ENDBRANCH   1   6
BRANCH   1  17
ATOM     17  C   UNL     1     -44.479  -8.277 -31.070  0.00  0.00    +0.000 C 
ATOM     18  C   UNL     1     -45.576  -9.239 -31.415  0.00  0.00    +0.000 C 
ATOM     19  O   UNL     1     -46.424  -8.938 -32.293  0.00  0.00    +0.000 OA
ATOM     20  N   UNL     1     -45.678 -10.487 -30.732  0.00  0.00    +0.000 N 
ATOM     21  C   UNL     1     -44.676 -10.915 -29.803  0.00  0.00    +0.000 C 
ATOM     22  N   UNL     1     -43.613 -10.192 -29.607  0.00  0.00    +0.000 NA
ATOM     23  C   UNL     1     -43.392  -8.938 -30.262  0.00  0.00    +0.000 C 
ATOM     24  O   UNL     1     -42.277  -8.369 -30.141  0.00  0.00    +0.000 OA
ATOM     25  H   UNL     1     -46.455 -11.068 -30.904  0.00  0.00    +0.000 HD
BRANCH  21  26
ATOM     26  C   UNL     1     -44.833 -12.204 -29.103  0.00  0.00    +0.000 A 
ATOM     27  C   UNL     1     -45.829 -12.357 -28.128  0.00  0.00    +0.000 A 
ATOM     28  C   UNL     1     -45.989 -13.578 -27.467  0.00  0.00    +0.000 A 
ATOM     29  C   UNL     1     -45.150 -14.653 -27.771  0.00  0.00    +0.000 A 
ATOM     30  C   UNL     1     -44.152 -14.509 -28.739  0.00  0.00    +0.000 A 
ATOM     31  C   UNL     1     -43.994 -13.288 -29.403  0.00  0.00    +0.000 A 
ENDBRANCH  21  26
ENDBRANCH   1  17
BRANCH   1  32
ATOM     32  C   UNL     1     -44.783  -5.759 -31.244  0.00  0.00    +0.000 A 
ATOM     33  C   UNL     1     -44.273  -4.586 -30.662  0.00  0.00    +0.000 A 
ATOM     34  C   UNL     1     -44.038  -3.455 -31.446  0.00  0.00    +0.000 A 
ATOM     35  C   UNL     1     -44.311  -3.489 -32.816  0.00  0.00    +0.000 A 
ATOM     36  C   UNL     1     -44.813  -4.655 -33.402  0.00  0.00    +0.000 A 
ATOM     37  C   UNL     1     -45.046  -5.789 -32.618  0.00  0.00    +0.000 A 
ATOM     38 CL   UNL     1     -44.034  -2.071 -33.800  0.00  0.00    +0.000 Cl
ENDBRANCH   1  32
TORSDOF 5
ENDMDL
MODEL 3
REMARK VINA RESULT:      -7.5     13.905     17.700
REMARK  Name = ZINC000013148091 ZINC13148091 PubChem-25726336
REMARK  5 active torsions:
REMARK  status: ('A' for Active; 'I' for Inactive)
REMARK    1  A    between atoms: C_1  and  C_6
REMARK    2  A    between atoms: C_1  and  C_17
REMARK    3  A    between atoms: C_1  and  C_32
REMARK    4  A    between atoms: C_2  and  C_14
REMARK    5  A    between atoms: C_21  and  C_26
REMARK                            x       y       z     vdW  Elec       q    Type
REMARK                         _______ _______ _______ _____ _____    ______ ____
ROOT
ATOM      1  C   UNL     1     -45.256  -5.658 -31.499  0.00  0.00    +0.000 C 
ENDROOT
BRANCH   1   6
ATOM      2  C   UNL     1     -46.092  -8.332 -29.001  0.00  0.00    +0.000 C 
ATOM      3  N   UNL     1     -44.850  -7.947 -29.009  0.00  0.00    +0.000 NA
ATOM      4  C   UNL     1     -44.466  -6.599 -29.301  0.00  0.00    +0.000 C 
ATOM      5  O   UNL     1     -43.295  -6.221 -29.040  0.00  0.00    +0.000 OA
ATOM      6  C   UNL     1     -45.429  -5.646 -29.965  0.00  0.00    +0.000 C 
ATOM      7  C   UNL     1     -46.836  -6.033 -29.593  0.00  0.00    +0.000 C 
ATOM      8  O   UNL     1     -47.756  -5.176 -29.627  0.00  0.00    +0.000 OA
ATOM      9  N   UNL     1     -47.138  -7.378 -29.225  0.00  0.00    +0.000 N 
ATOM     10  H   UNL     1     -48.078  -7.655 -29.124  0.00  0.00    +0.000 HD
BRANCH   2  14
ATOM     11  C   UNL     1     -47.080 -12.401 -28.128  0.00  0.00    +0.000 A 
ATOM     12  C   UNL     1     -46.816 -12.015 -29.444  0.00  0.00    +0.000 A 
ATOM     13  C   UNL     1     -46.489 -10.687 -29.728  0.00  0.00    +0.000 A 
ATOM     14  C   UNL     1     -46.427  -9.734 -28.702  0.00  0.00    +0.000 A 
ATOM     15  C   UNL     1     -46.695 -10.131 -27.384  0.00  0.00    +0.000 A 
ATOM     16  C   UNL     1     -47.018 -11.461 -27.099  0.00  0.00    +0.000 A 
ENDBRANCH   2  14
ENDBRANCH   1   6
BRANCH   1  17
ATOM     17  C   UNL     1     -46.557  -5.995 -32.261  0.00  0.00    +0.000 C 
ATOM     18  C   UNL     1     -46.462  -7.331 -32.933  0.00  0.00    +0.000 C 
ATOM     19  O   UNL     1     -46.371  -8.379 -32.242  0.00  0.00    +0.000 OA
ATOM     20  N   UNL     1     -46.450  -7.420 -34.356  0.00  0.00    +0.000 N 
ATOM     21  C   UNL     1     -46.658  -6.267 -35.179  0.00  0.00    +0.000 C 
ATOM     22  N   UNL     1     -46.924  -5.114 -34.637  0.00  0.00    +0.000 NA
ATOM     23  C   UNL     1     -46.992  -4.917 -33.221  0.00  0.00    +0.000 C 
ATOM     24  O   UNL     1     -47.402  -3.816 -32.772  0.00  0.00    +0.000 OA
ATOM     25  H   UNL     1     -46.295  -8.294 -34.783  0.00  0.00    +0.000 HD
BRANCH  21  26
ATOM     26  C   UNL     1     -46.615  -6.400 -36.648  0.00  0.00    +0.000 A 
ATOM     27  C   UNL     1     -47.657  -5.884 -37.431  0.00  0.00    +0.000 A 
ATOM     28  C   UNL     1     -47.618  -5.999 -38.823  0.00  0.00    +0.000 A 
ATOM     29  C   UNL     1     -46.541  -6.637 -39.442  0.00  0.00    +0.000 A 
ATOM     30  C   UNL     1     -45.499  -7.158 -38.670  0.00  0.00    +0.000 A 
ATOM     31  C   UNL     1     -45.536  -7.041 -37.277  0.00  0.00    +0.000 A 
ENDBRANCH  21  26
ENDBRANCH   1  17
BRANCH   1  32
ATOM     32  C   UNL     1     -44.564  -4.431 -32.041  0.00  0.00    +0.000 A 
ATOM     33  C   UNL     1     -43.780  -4.488 -33.205  0.00  0.00    +0.000 A 
ATOM     34  C   UNL     1     -43.151  -3.339 -33.689  0.00  0.00    +0.000 A 
ATOM     35  C   UNL     1     -43.301  -2.127 -33.011  0.00  0.00    +0.000 A 
ATOM     36  C   UNL     1     -44.084  -2.062 -31.855  0.00  0.00    +0.000 A 
ATOM     37  C   UNL     1     -44.717  -3.211 -31.372  0.00  0.00    +0.000 A 
ATOM     38 CL   UNL     1     -42.503  -0.688 -33.603  0.00  0.00    +0.000 Cl
ENDBRANCH   1  32
TORSDOF 5
ENDMDL
