MODEL 1
REMARK VINA RESULT:      -7.0      0.000      0.000
REMARK  Name = ZINC000031808022
REMARK  1 active torsions:
REMARK  status: ('A' for Active; 'I' for Inactive)
REMARK    1  A    between atoms: C_7  and  C_24
REMARK                            x       y       z     vdW  Elec       q    Type
REMARK                         _______ _______ _______ _____ _____    ______ ____
ROOT
ATOM      1  C   UNL     1     -47.485  -4.446 -26.212  0.00  0.00    +0.000 C 
ATOM      2  C   UNL     1     -46.993  -4.702 -27.595  0.00  0.00    +0.000 A 
ATOM      3  N   UNL     1     -46.845  -3.736 -28.518  0.00  0.00    +0.000 NA
ATOM      4  N   UNL     1     -46.391  -4.305 -29.622  0.00  0.00    +0.000 N 
ATOM      5  C   UNL     1     -46.211  -5.629 -29.415  0.00  0.00    +0.000 A 
ATOM      6  C   UNL     1     -46.611  -5.927 -28.113  0.00  0.00    +0.000 A 
ATOM      7  C   UNL     1     -46.602  -7.212 -27.332  0.00  0.00    +0.000 C 
ATOM      8  S   UNL     1     -46.838  -8.724 -28.317  0.00  0.00    +0.000 S 
ATOM      9  C   UNL     1     -45.193  -8.616 -29.059  0.00  0.00    +0.000 C 
ATOM     10  C   UNL     1     -45.264  -7.873 -30.340  0.00  0.00    +0.000 C 
ATOM     11  O   UNL     1     -44.928  -8.468 -31.396  0.00  0.00    +0.000 OA
ATOM     12  N   UNL     1     -45.661  -6.501 -30.417  0.00  0.00    +0.000 N 
ATOM     13  H   UNL     1     -45.538  -6.086 -31.302  0.00  0.00    +0.000 HD
ATOM     14  C   UNL     1     -46.090  -3.556 -30.809  0.00  0.00    +0.000 A 
ATOM     15  N   UNL     1     -45.544  -2.307 -30.710  0.00  0.00    +0.000 NA
ATOM     16  C   UNL     1     -45.271  -1.554 -31.823  0.00  0.00    +0.000 A 
ATOM     17  N   UNL     1     -45.556  -2.031 -33.071  0.00  0.00    +0.000 NA
ATOM     18  C   UNL     1     -46.109  -3.263 -33.171  0.00  0.00    +0.000 A 
ATOM     19  N   UNL     1     -46.507  -3.871 -34.295  0.00  0.00    +0.000 N 
ATOM     20  C   UNL     1     -47.040  -5.032 -33.827  0.00  0.00    +0.000 A 
ATOM     21  N   UNL     1     -46.990  -5.156 -32.473  0.00  0.00    +0.000 NA
ATOM     22  C   UNL     1     -46.385  -4.023 -32.091  0.00  0.00    +0.000 A 
ATOM     23  H   UNL     1     -46.433  -3.557 -35.226  0.00  0.00    +0.000 HD
ENDROOT
BRANCH   7  24
ATOM     24  C   UNL     1     -45.505  -7.308 -26.303  0.00  0.00    +0.000 A 
ATOM     25  C   UNL     1     -44.172  -7.049 -26.658  0.00  0.00    +0.000 A 
ATOM     26  C   UNL     1     -43.154  -7.133 -25.705  0.00  0.00    +0.000 A 
ATOM     27  C   UNL     1     -43.460  -7.478 -24.388  0.00  0.00    +0.000 A 
ATOM     28  C   UNL     1     -44.783  -7.736 -24.023  0.00  0.00    +0.000 A 
ATOM     29  C   UNL     1     -45.807  -7.652 -24.972  0.00  0.00    +0.000 A 
ATOM     30 CL   UNL     1     -47.456  -7.978 -24.457  0.00  0.00    +0.000 Cl
ENDBRANCH   7  24
TORSDOF 1
ENDMDL
MODEL 2
REMARK VINA RESULT:      -6.7      4.869      7.052
REMARK  Name = ZINC000031808022
REMARK  1 active torsions:
REMARK  status: ('A' for Active; 'I' for Inactive)
REMARK    1  A    between atoms: C_7  and  C_24
REMARK                            x       y       z     vdW  Elec       q    Type
REMARK                         _______ _______ _______ _____ _____    ______ ____
ROOT
ATOM      1  C   UNL     1     -47.163  -3.425 -33.714  0.00  0.00    +0.000 C 
ATOM      2  C   UNL     1     -46.497  -4.756 -33.768  0.00  0.00    +0.000 A 
ATOM      3  N   UNL     1     -46.808  -5.703 -34.671  0.00  0.00    +0.000 NA
ATOM      4  N   UNL     1     -46.031  -6.747 -34.438  0.00  0.00    +0.000 N 
ATOM      5  C   UNL     1     -45.193  -6.475 -33.411  0.00  0.00    +0.000 A 
ATOM      6  C   UNL     1     -45.481  -5.197 -32.937  0.00  0.00    +0.000 A 
ATOM      7  C   UNL     1     -44.857  -4.367 -31.849  0.00  0.00    +0.000 C 
ATOM      8  S   UNL     1     -44.171  -5.308 -30.449  0.00  0.00    +0.000 S 
ATOM      9  C   UNL     1     -42.779  -5.929 -31.421  0.00  0.00    +0.000 C 
ATOM     10  C   UNL     1     -43.127  -7.240 -32.021  0.00  0.00    +0.000 C 
ATOM     11  O   UNL     1     -42.439  -8.244 -31.704  0.00  0.00    +0.000 OA
ATOM     12  N   UNL     1     -44.183  -7.399 -32.972  0.00  0.00    +0.000 N 
ATOM     13  H   UNL     1     -44.225  -8.288 -33.395  0.00  0.00    +0.000 HD
ATOM     14  C   UNL     1     -46.074  -7.936 -35.240  0.00  0.00    +0.000 A 
ATOM     15  N   UNL     1     -46.286  -7.846 -36.587  0.00  0.00    +0.000 NA
ATOM     16  C   UNL     1     -46.361  -8.963 -37.378  0.00  0.00    +0.000 A 
ATOM     17  N   UNL     1     -46.244 -10.210 -36.831  0.00  0.00    +0.000 NA
ATOM     18  C   UNL     1     -46.049 -10.303 -35.494  0.00  0.00    +0.000 A 
ATOM     19  N   UNL     1     -45.968 -11.429 -34.775  0.00  0.00    +0.000 N 
ATOM     20  C   UNL     1     -45.840 -10.957 -33.505  0.00  0.00    +0.000 A 
ATOM     21  N   UNL     1     -45.846  -9.599 -33.417  0.00  0.00    +0.000 NA
ATOM     22  C   UNL     1     -45.968  -9.217 -34.696  0.00  0.00    +0.000 A 
ATOM     23  H   UNL     1     -45.994 -12.363 -35.086  0.00  0.00    +0.000 HD
ENDROOT
BRANCH   7  24
ATOM     24  C   UNL     1     -43.967  -3.257 -32.344  0.00  0.00    +0.000 A 
ATOM     25  C   UNL     1     -42.915  -3.531 -33.231  0.00  0.00    +0.000 A 
ATOM     26  C   UNL     1     -42.090  -2.502 -33.695  0.00  0.00    +0.000 A 
ATOM     27  C   UNL     1     -42.312  -1.191 -33.275  0.00  0.00    +0.000 A 
ATOM     28  C   UNL     1     -43.358  -0.905 -32.395  0.00  0.00    +0.000 A 
ATOM     29  C   UNL     1     -44.187  -1.930 -31.927  0.00  0.00    +0.000 A 
ATOM     30 CL   UNL     1     -45.493  -1.515 -30.828  0.00  0.00    +0.000 Cl
ENDBRANCH   7  24
TORSDOF 1
ENDMDL
MODEL 3
REMARK VINA RESULT:      -6.5      2.942      4.028
REMARK  Name = ZINC000031808022
REMARK  1 active torsions:
REMARK  status: ('A' for Active; 'I' for Inactive)
REMARK    1  A    between atoms: C_7  and  C_24
REMARK                            x       y       z     vdW  Elec       q    Type
REMARK                         _______ _______ _______ _____ _____    ______ ____
ROOT
ATOM      1  C   UNL     1     -42.641  -6.779 -27.417  0.00  0.00    +0.000 C 
ATOM      2  C   UNL     1     -43.091  -6.141 -28.684  0.00  0.00    +0.000 A 
ATOM      3  N   UNL     1     -42.251  -5.782 -29.671  0.00  0.00    +0.000 NA
ATOM      4  N   UNL     1     -42.977  -5.252 -30.641  0.00  0.00    +0.000 N 
ATOM      5  C   UNL     1     -44.287  -5.292 -30.308  0.00  0.00    +0.000 A 
ATOM      6  C   UNL     1     -44.398  -5.845 -29.033  0.00  0.00    +0.000 A 
ATOM      7  C   UNL     1     -45.595  -6.163 -28.179  0.00  0.00    +0.000 C 
ATOM      8  S   UNL     1     -47.026  -5.060 -28.404  0.00  0.00    +0.000 S 
ATOM      9  C   UNL     1     -47.419  -5.740 -30.032  0.00  0.00    +0.000 C 
ATOM     10  C   UNL     1     -46.748  -4.943 -31.088  0.00  0.00    +0.000 C 
ATOM     11  O   UNL     1     -47.463  -4.359 -31.941  0.00  0.00    +0.000 OA
ATOM     12  N   UNL     1     -45.325  -4.847 -31.197  0.00  0.00    +0.000 N 
ATOM     13  H   UNL     1     -45.005  -4.402 -32.015  0.00  0.00    +0.000 HD
ATOM     14  C   UNL     1     -42.401  -4.785 -31.870  0.00  0.00    +0.000 A 
ATOM     15  N   UNL     1     -41.351  -5.456 -32.432  0.00  0.00    +0.000 NA
ATOM     16  C   UNL     1     -40.759  -5.022 -33.590  0.00  0.00    +0.000 A 
ATOM     17  N   UNL     1     -41.197  -3.884 -34.208  0.00  0.00    +0.000 NA
ATOM     18  C   UNL     1     -42.228  -3.210 -33.646  0.00  0.00    +0.000 A 
ATOM     19  N   UNL     1     -42.753  -2.054 -34.071  0.00  0.00    +0.000 N 
ATOM     20  C   UNL     1     -43.695  -1.794 -33.123  0.00  0.00    +0.000 A 
ATOM     21  N   UNL     1     -43.762  -2.733 -32.140  0.00  0.00    +0.000 NA
ATOM     22  C   UNL     1     -42.828  -3.620 -32.508  0.00  0.00    +0.000 A 
ATOM     23  H   UNL     1     -42.518  -1.526 -34.868  0.00  0.00    +0.000 HD
ENDROOT
BRANCH   7  24
ATOM     24  C   UNL     1     -45.944  -7.627 -28.116  0.00  0.00    +0.000 A 
ATOM     25  C   UNL     1     -45.762  -8.451 -29.238  0.00  0.00    +0.000 A 
ATOM     26  C   UNL     1     -46.082  -9.810 -29.181  0.00  0.00    +0.000 A 
ATOM     27  C   UNL     1     -46.587 -10.356 -28.001  0.00  0.00    +0.000 A 
ATOM     28  C   UNL     1     -46.771  -9.547 -26.878  0.00  0.00    +0.000 A 
ATOM     29  C   UNL     1     -46.452  -8.186 -26.928  0.00  0.00    +0.000 A 
ATOM     30 CL   UNL     1     -46.693  -7.215 -25.483  0.00  0.00    +0.000 Cl
ENDBRANCH   7  24
TORSDOF 1
ENDMDL
