MODEL 1
REMARK VINA RESULT:      -6.3      0.000      0.000
REMARK  Name = ZINC000096182866 ZINC96182866 PubChem-97458158
REMARK  2 active torsions:
REMARK  status: ('A' for Active; 'I' for Inactive)
REMARK    1  A    between atoms: C_5  and  C_6
REMARK    2  A    between atoms: C_7  and  C_11
REMARK                            x       y       z     vdW  Elec       q    Type
REMARK                         _______ _______ _______ _____ _____    ______ ____
ROOT
ATOM      1  C   UNL     1     -45.542  -3.824 -30.784  0.00  0.00    +0.000 C 
ATOM      2  C   UNL     1     -44.529  -4.210 -31.880  0.00  0.00    +0.000 C 
ATOM      3  C   UNL     1     -46.603  -4.780 -33.184  0.00  0.00    +0.000 C 
ATOM      4  C   UNL     1     -47.434  -4.283 -32.044  0.00  0.00    +0.000 C 
ATOM      5  C   UNL     1     -44.362  -5.510 -34.033  0.00  0.00    +0.000 C 
ATOM      6  N   UNL     1     -45.180  -4.830 -33.038  0.00  0.00    +0.000 N 
ATOM      7  O   UNL     1     -47.163  -5.208 -34.228  0.00  0.00    +0.000 OA
ATOM      8  O   UNL     1     -46.747  -3.292 -31.308  0.00  0.00    +0.000 OA
ENDROOT
BRANCH   1  13
ATOM      9  C   UNL     1     -47.690  -5.862 -23.946  0.00  0.00    +0.000 C 
ATOM     10  C   UNL     1     -47.070  -6.051 -25.286  0.00  0.00    +0.000 A 
ATOM     11  C   UNL     1     -46.419  -7.217 -25.676  0.00  0.00    +0.000 A 
ATOM     12  C   UNL     1     -46.478  -5.451 -27.364  0.00  0.00    +0.000 A 
ATOM     13  C   UNL     1     -45.758  -4.899 -29.757  0.00  0.00    +0.000 C 
ATOM     14  C   UNL     1     -46.232  -8.443 -24.851  0.00  0.00    +0.000 C 
ATOM     15  S   UNL     1     -45.858  -7.017 -27.246  0.00  0.00    +0.000 S 
ATOM     16  N   UNL     1     -47.097  -5.069 -26.226  0.00  0.00    +0.000 NA
ATOM     17  N   UNL     1     -46.338  -4.571 -28.486  0.00  0.00    +0.000 NA
ATOM     18  O   UNL     1     -45.413  -6.078 -30.028  0.00  0.00    +0.000 OA
ENDBRANCH   1  13
BRANCH   2  19
ATOM     19  C   UNL     1     -43.722  -3.019 -32.300  0.00  0.00    +0.000 A 
ATOM     20  C   UNL     1     -42.325  -3.098 -32.276  0.00  0.00    +0.000 A 
ATOM     21  C   UNL     1     -41.551  -2.004 -32.677  0.00  0.00    +0.000 A 
ATOM     22  C   UNL     1     -42.173  -0.827 -33.105  0.00  0.00    +0.000 A 
ATOM     23  C   UNL     1     -43.568  -0.744 -33.133  0.00  0.00    +0.000 A 
ATOM     24  C   UNL     1     -44.342  -1.838 -32.734  0.00  0.00    +0.000 A 
ATOM     25  F   UNL     1     -41.424   0.233 -33.490  0.00  0.00    +0.000 F 
ENDBRANCH   2  19
TORSDOF 2
ENDMDL
MODEL 2
REMARK VINA RESULT:      -6.3      2.002      2.483
REMARK  Name = ZINC000096182866 ZINC96182866 PubChem-97458158
REMARK  2 active torsions:
REMARK  status: ('A' for Active; 'I' for Inactive)
REMARK    1  A    between atoms: C_5  and  C_6
REMARK    2  A    between atoms: C_7  and  C_11
REMARK                            x       y       z     vdW  Elec       q    Type
REMARK                         _______ _______ _______ _____ _____    ______ ____
ROOT
ATOM      1  C   UNL     1     -45.509  -3.849 -30.829  0.00  0.00    +0.000 C 
ATOM      2  C   UNL     1     -44.510  -4.207 -31.948  0.00  0.00    +0.000 C 
ATOM      3  C   UNL     1     -46.602  -4.685 -33.260  0.00  0.00    +0.000 C 
ATOM      4  C   UNL     1     -47.417  -4.221 -32.095  0.00  0.00    +0.000 C 
ATOM      5  C   UNL     1     -44.379  -5.419 -34.153  0.00  0.00    +0.000 C 
ATOM      6  N   UNL     1     -45.179  -4.767 -33.126  0.00  0.00    +0.000 N 
ATOM      7  O   UNL     1     -47.175  -5.060 -34.317  0.00  0.00    +0.000 OA
ATOM      8  O   UNL     1     -46.708  -3.274 -31.323  0.00  0.00    +0.000 OA
ENDROOT
BRANCH   1  13
ATOM      9  C   UNL     1     -44.576 -10.963 -28.821  0.00  0.00    +0.000 C 
ATOM     10  C   UNL     1     -45.153  -9.593 -28.734  0.00  0.00    +0.000 A 
ATOM     11  C   UNL     1     -46.153  -9.234 -27.836  0.00  0.00    +0.000 A 
ATOM     12  C   UNL     1     -45.386  -7.438 -29.305  0.00  0.00    +0.000 A 
ATOM     13  C   UNL     1     -45.739  -4.962 -29.847  0.00  0.00    +0.000 C 
ATOM     14  C   UNL     1     -46.803 -10.123 -26.834  0.00  0.00    +0.000 C 
ATOM     15  S   UNL     1     -46.525  -7.613 -28.071  0.00  0.00    +0.000 S 
ATOM     16  N   UNL     1     -44.732  -8.593 -29.553  0.00  0.00    +0.000 NA
ATOM     17  N   UNL     1     -45.148  -6.250 -30.070  0.00  0.00    +0.000 NA
ATOM     18  O   UNL     1     -46.464  -4.746 -28.842  0.00  0.00    +0.000 OA
ENDBRANCH   1  13
BRANCH   2  19
ATOM     19  C   UNL     1     -43.684  -3.014 -32.323  0.00  0.00    +0.000 A 
ATOM     20  C   UNL     1     -42.288  -3.117 -32.303  0.00  0.00    +0.000 A 
ATOM     21  C   UNL     1     -41.497  -2.021 -32.663  0.00  0.00    +0.000 A 
ATOM     22  C   UNL     1     -42.099  -0.819 -33.046  0.00  0.00    +0.000 A 
ATOM     23  C   UNL     1     -43.494  -0.713 -33.071  0.00  0.00    +0.000 A 
ATOM     24  C   UNL     1     -44.285  -1.808 -32.713  0.00  0.00    +0.000 A 
ATOM     25  F   UNL     1     -41.334   0.242 -33.393  0.00  0.00    +0.000 F 
ENDBRANCH   2  19
TORSDOF 2
ENDMDL
MODEL 3
REMARK VINA RESULT:      -6.2     10.460     14.978
REMARK  Name = ZINC000096182866 ZINC96182866 PubChem-97458158
REMARK  2 active torsions:
REMARK  status: ('A' for Active; 'I' for Inactive)
REMARK    1  A    between atoms: C_5  and  C_6
REMARK    2  A    between atoms: C_7  and  C_11
REMARK                            x       y       z     vdW  Elec       q    Type
REMARK                         _______ _______ _______ _____ _____    ______ ____
ROOT
ATOM      1  C   UNL     1     -45.987 -14.481 -22.485  0.00  0.00    +0.000 C 
ATOM      2  C   UNL     1     -44.890 -15.193 -21.669  0.00  0.00    +0.000 C 
ATOM      3  C   UNL     1     -44.816 -13.013 -20.417  0.00  0.00    +0.000 C 
ATOM      4  C   UNL     1     -45.948 -12.514 -21.256  0.00  0.00    +0.000 C 
ATOM      5  C   UNL     1     -43.009 -14.712 -20.063  0.00  0.00    +0.000 C 
ATOM      6  N   UNL     1     -44.245 -14.293 -20.709  0.00  0.00    +0.000 N 
ATOM      7  O   UNL     1     -44.335 -12.280 -19.513  0.00  0.00    +0.000 OA
ATOM      8  O   UNL     1     -46.758 -13.581 -21.705  0.00  0.00    +0.000 OA
ENDROOT
BRANCH   1  13
ATOM      9  C   UNL     1     -47.262 -12.373 -29.517  0.00  0.00    +0.000 C 
ATOM     10  C   UNL     1     -46.428 -12.676 -28.321  0.00  0.00    +0.000 A 
ATOM     11  C   UNL     1     -45.037 -12.637 -28.322  0.00  0.00    +0.000 A 
ATOM     12  C   UNL     1     -46.055 -13.254 -26.187  0.00  0.00    +0.000 A 
ATOM     13  C   UNL     1     -45.492 -13.885 -23.772  0.00  0.00    +0.000 C 
ATOM     14  C   UNL     1     -44.163 -12.298 -29.478  0.00  0.00    +0.000 C 
ATOM     15  S   UNL     1     -44.491 -13.050 -26.788  0.00  0.00    +0.000 S 
ATOM     16  N   UNL     1     -46.991 -13.023 -27.133  0.00  0.00    +0.000 NA
ATOM     17  N   UNL     1     -46.401 -13.678 -24.863  0.00  0.00    +0.000 NA
ATOM     18  O   UNL     1     -44.275 -13.588 -23.876  0.00  0.00    +0.000 OA
ENDBRANCH   1  13
BRANCH   2  19
ATOM     19  C   UNL     1     -45.444 -16.401 -20.975  0.00  0.00    +0.000 A 
ATOM     20  C   UNL     1     -45.238 -17.666 -21.538  0.00  0.00    +0.000 A 
ATOM     21  C   UNL     1     -45.734 -18.808 -20.902  0.00  0.00    +0.000 A 
ATOM     22  C   UNL     1     -46.436 -18.690 -19.698  0.00  0.00    +0.000 A 
ATOM     23  C   UNL     1     -46.641 -17.428 -19.130  0.00  0.00    +0.000 A 
ATOM     24  C   UNL     1     -46.145 -16.286 -19.765  0.00  0.00    +0.000 A 
ATOM     25  F   UNL     1     -46.917 -19.795 -19.083  0.00  0.00    +0.000 F 
ENDBRANCH   2  19
TORSDOF 2
ENDMDL
