MODEL 1
REMARK VINA RESULT:      -7.2      0.000      0.000
REMARK  Name = ZINC000012762430
REMARK  6 active torsions:
REMARK  status: ('A' for Active; 'I' for Inactive)
REMARK    1  A    between atoms: C_1  and  C_15
REMARK    2  A    between atoms: C_9  and  S_27
REMARK    3  A    between atoms: N_13  and  C_17
REMARK    4  A    between atoms: C_17  and  C_21
REMARK    5  A    between atoms: C_18  and  C_26
REMARK    6  A    between atoms: S_27  and  N_30
REMARK                            x       y       z     vdW  Elec       q    Type
REMARK                         _______ _______ _______ _____ _____    ______ ____
ROOT
ATOM      1  C   UNL     1     -44.985  -6.269 -30.354  0.00  0.00    +0.000 A 
ATOM      2  C   UNL     1     -45.622  -5.085 -29.963  0.00  0.00    +0.000 A 
ATOM      3  C   UNL     1     -46.865  -5.128 -29.330  0.00  0.00    +0.000 A 
ATOM      4  O   UNL     1     -47.427  -4.058 -28.981  0.00  0.00    +0.000 OA
ATOM      5  N   UNL     1     -47.470  -6.321 -29.095  0.00  0.00    +0.000 N 
ATOM      6  C   UNL     1     -46.894  -7.496 -29.459  0.00  0.00    +0.000 A 
ATOM      7  C   UNL     1     -47.553  -8.700 -29.196  0.00  0.00    +0.000 A 
ATOM      8  C   UNL     1     -46.966  -9.915 -29.559  0.00  0.00    +0.000 A 
ATOM      9  C   UNL     1     -45.714  -9.932 -30.184  0.00  0.00    +0.000 A 
ATOM     10  C   UNL     1     -45.053  -8.730 -30.451  0.00  0.00    +0.000 A 
ATOM     11  C   UNL     1     -45.631  -7.500 -30.100  0.00  0.00    +0.000 A 
ATOM     12  H   UNL     1     -48.348  -6.333 -28.650  0.00  0.00    +0.000 HD
ENDROOT
BRANCH   1  15
ATOM     13  N   UNL     1     -43.587  -6.385 -32.490  0.00  0.00    +0.000 N 
ATOM     14  C   UNL     1     -42.274  -6.499 -33.108  0.00  0.00    +0.000 C 
ATOM     15  C   UNL     1     -43.686  -6.183 -31.068  0.00  0.00    +0.000 C 
ATOM     16  O   UNL     1     -42.639  -5.951 -30.404  0.00  0.00    +0.000 OA
BRANCH  13  17
ATOM     17  C   UNL     1     -44.750  -6.229 -33.359  0.00  0.00    +0.000 C 
BRANCH  17  21
ATOM     18  C   UNL     1     -45.006  -2.686 -33.506  0.00  0.00    +0.000 A 
ATOM     19  C   UNL     1     -46.354  -2.962 -33.658  0.00  0.00    +0.000 A 
ATOM     20  C   UNL     1     -46.451  -4.345 -33.616  0.00  0.00    +0.000 A 
ATOM     21  C   UNL     1     -45.156  -4.795 -33.446  0.00  0.00    +0.000 A 
ATOM     22  O   UNL     1     -44.317  -3.794 -33.389  0.00  0.00    +0.000 OA
BRANCH  18  26
ATOM     23  C   UNL     1     -45.110  -1.289 -31.020  0.00  0.00    +0.000 C 
ATOM     24  C   UNL     1     -44.476  -0.542 -32.187  0.00  0.00    +0.000 C 
ATOM     25  C   UNL     1     -43.199  -1.253 -32.581  0.00  0.00    +0.000 C 
ATOM     26  C   UNL     1     -44.394  -1.314 -33.514  0.00  0.00    +0.000 C 
ENDBRANCH  18  26
ENDBRANCH  17  21
ENDBRANCH  13  17
ENDBRANCH   1  15
BRANCH   9  27
ATOM     27  S   UNL     1     -44.979 -11.460 -30.650  0.00  0.00    +0.000 S 
ATOM     28  O   UNL     1     -45.969 -12.261 -31.450  0.00  0.00    +0.000 OA
ATOM     29  O   UNL     1     -43.779 -11.192 -31.515  0.00  0.00    +0.000 OA
BRANCH  27  30
ATOM     30  N   UNL     1     -44.491 -12.368 -29.255  0.00  0.00    +0.000 NA
ATOM     31  C   UNL     1     -45.031 -13.723 -29.389  0.00  0.00    +0.000 C 
ATOM     32  C   UNL     1     -44.461 -14.615 -28.284  0.00  0.00    +0.000 C 
ATOM     33  O   UNL     1     -43.059 -14.682 -28.404  0.00  0.00    +0.000 OA
ATOM     34  C   UNL     1     -42.561 -13.391 -28.148  0.00  0.00    +0.000 C 
ATOM     35  C   UNL     1     -43.027 -12.429 -29.243  0.00  0.00    +0.000 C 
ENDBRANCH  27  30
ENDBRANCH   9  27
TORSDOF 6
ENDMDL
MODEL 2
REMARK VINA RESULT:      -7.1     10.667     14.475
REMARK  Name = ZINC000012762430
REMARK  6 active torsions:
REMARK  status: ('A' for Active; 'I' for Inactive)
REMARK    1  A    between atoms: C_1  and  C_15
REMARK    2  A    between atoms: C_9  and  S_27
REMARK    3  A    between atoms: N_13  and  C_17
REMARK    4  A    between atoms: C_17  and  C_21
REMARK    5  A    between atoms: C_18  and  C_26
REMARK    6  A    between atoms: S_27  and  N_30
REMARK                            x       y       z     vdW  Elec       q    Type
REMARK                         _______ _______ _______ _____ _____    ______ ____
ROOT
ATOM      1  C   UNL     1     -44.662 -18.988 -20.038  0.00  0.00    +0.000 A 
ATOM      2  C   UNL     1     -43.871 -19.368 -18.947  0.00  0.00    +0.000 A 
ATOM      3  C   UNL     1     -42.606 -19.921 -19.152  0.00  0.00    +0.000 A 
ATOM      4  O   UNL     1     -41.902 -20.256 -18.164  0.00  0.00    +0.000 OA
ATOM      5  N   UNL     1     -42.135 -20.101 -20.413  0.00  0.00    +0.000 N 
ATOM      6  C   UNL     1     -42.867 -19.751 -21.503  0.00  0.00    +0.000 A 
ATOM      7  C   UNL     1     -42.342 -19.954 -22.782  0.00  0.00    +0.000 A 
ATOM      8  C   UNL     1     -43.083 -19.592 -23.910  0.00  0.00    +0.000 A 
ATOM      9  C   UNL     1     -44.352 -19.021 -23.764  0.00  0.00    +0.000 A 
ATOM     10  C   UNL     1     -44.881 -18.818 -22.486  0.00  0.00    +0.000 A 
ATOM     11  C   UNL     1     -44.154 -19.183 -21.343  0.00  0.00    +0.000 A 
ATOM     12  H   UNL     1     -41.242 -20.494 -20.539  0.00  0.00    +0.000 HD
ENDROOT
BRANCH   1  15
ATOM     13  N   UNL     1     -46.226 -17.148 -19.202  0.00  0.00    +0.000 N 
ATOM     14  C   UNL     1     -47.563 -16.754 -18.780  0.00  0.00    +0.000 C 
ATOM     15  C   UNL     1     -46.022 -18.449 -19.785  0.00  0.00    +0.000 C 
ATOM     16  O   UNL     1     -47.024 -19.163 -20.065  0.00  0.00    +0.000 OA
BRANCH  13  17
ATOM     17  C   UNL     1     -45.186 -16.125 -19.251  0.00  0.00    +0.000 C 
BRANCH  17  21
ATOM     18  C   UNL     1     -46.467 -12.860 -19.833  0.00  0.00    +0.000 A 
ATOM     19  C   UNL     1     -46.451 -13.276 -21.153  0.00  0.00    +0.000 A 
ATOM     20  C   UNL     1     -45.971 -14.576 -21.122  0.00  0.00    +0.000 A 
ATOM     21  C   UNL     1     -45.731 -14.842 -19.787  0.00  0.00    +0.000 A 
ATOM     22  O   UNL     1     -46.027 -13.808 -19.043  0.00  0.00    +0.000 OA
BRANCH  18  26
ATOM     23  C   UNL     1     -44.330 -11.072 -19.222  0.00  0.00    +0.000 C 
ATOM     24  C   UNL     1     -45.739 -10.540 -18.993  0.00  0.00    +0.000 C 
ATOM     25  C   UNL     1     -46.438 -10.426 -20.331  0.00  0.00    +0.000 C 
ATOM     26  C   UNL     1     -46.886 -11.499 -19.356  0.00  0.00    +0.000 C 
ENDBRANCH  18  26
ENDBRANCH  17  21
ENDBRANCH  13  17
ENDBRANCH   1  15
BRANCH   9  27
ATOM     27  S   UNL     1     -45.289 -18.573 -25.183  0.00  0.00    +0.000 S 
ATOM     28  O   UNL     1     -44.808 -19.370 -26.364  0.00  0.00    +0.000 OA
ATOM     29  O   UNL     1     -46.736 -18.903 -24.949  0.00  0.00    +0.000 OA
BRANCH  27  30
ATOM     30  N   UNL     1     -45.133 -16.879 -25.524  0.00  0.00    +0.000 NA
ATOM     31  C   UNL     1     -46.155 -16.170 -24.750  0.00  0.00    +0.000 C 
ATOM     32  C   UNL     1     -45.928 -14.661 -24.864  0.00  0.00    +0.000 C 
ATOM     33  O   UNL     1     -44.665 -14.330 -24.338  0.00  0.00    +0.000 OA
ATOM     34  C   UNL     1     -43.702 -14.923 -25.174  0.00  0.00    +0.000 C 
ATOM     35  C   UNL     1     -43.804 -16.448 -25.083  0.00  0.00    +0.000 C 
ENDBRANCH  27  30
ENDBRANCH   9  27
TORSDOF 6
ENDMDL
MODEL 3
REMARK VINA RESULT:      -6.9      1.666      1.989
REMARK  Name = ZINC000012762430
REMARK  6 active torsions:
REMARK  status: ('A' for Active; 'I' for Inactive)
REMARK    1  A    between atoms: C_1  and  C_15
REMARK    2  A    between atoms: C_9  and  S_27
REMARK    3  A    between atoms: N_13  and  C_17
REMARK    4  A    between atoms: C_17  and  C_21
REMARK    5  A    between atoms: C_18  and  C_26
REMARK    6  A    between atoms: S_27  and  N_30
REMARK                            x       y       z     vdW  Elec       q    Type
REMARK                         _______ _______ _______ _____ _____    ______ ____
ROOT
ATOM      1  C   UNL     1     -45.420  -6.989 -29.092  0.00  0.00    +0.000 A 
ATOM      2  C   UNL     1     -45.645  -5.755 -28.470  0.00  0.00    +0.000 A 
ATOM      3  C   UNL     1     -46.404  -5.682 -27.302  0.00  0.00    +0.000 A 
ATOM      4  O   UNL     1     -46.598  -4.568 -26.750  0.00  0.00    +0.000 OA
ATOM      5  N   UNL     1     -46.937  -6.809 -26.763  0.00  0.00    +0.000 N 
ATOM      6  C   UNL     1     -46.749  -8.028 -27.331  0.00  0.00    +0.000 A 
ATOM      7  C   UNL     1     -47.315  -9.161 -26.740  0.00  0.00    +0.000 A 
ATOM      8  C   UNL     1     -47.122 -10.421 -27.312  0.00  0.00    +0.000 A 
ATOM      9  C   UNL     1     -46.358 -10.555 -28.477  0.00  0.00    +0.000 A 
ATOM     10  C   UNL     1     -45.793  -9.424 -29.072  0.00  0.00    +0.000 A 
ATOM     11  C   UNL     1     -45.982  -8.150 -28.516  0.00  0.00    +0.000 A 
ATOM     12  H   UNL     1     -47.471  -6.739 -25.939  0.00  0.00    +0.000 HD
ENDROOT
BRANCH   1  15
ATOM     13  N   UNL     1     -45.264  -6.738 -31.631  0.00  0.00    +0.000 N 
ATOM     14  C   UNL     1     -44.523  -6.989 -32.859  0.00  0.00    +0.000 C 
ATOM     15  C   UNL     1     -44.648  -7.022 -30.361  0.00  0.00    +0.000 C 
ATOM     16  O   UNL     1     -43.426  -7.333 -30.324  0.00  0.00    +0.000 OA
BRANCH  13  17
ATOM     17  C   UNL     1     -46.507  -5.977 -31.716  0.00  0.00    +0.000 C 
BRANCH  17  21
ATOM     18  C   UNL     1     -45.452  -2.621 -32.235  0.00  0.00    +0.000 A 
ATOM     19  C   UNL     1     -46.235  -2.733 -33.371  0.00  0.00    +0.000 A 
ATOM     20  C   UNL     1     -46.755  -4.018 -33.333  0.00  0.00    +0.000 A 
ATOM     21  C   UNL     1     -46.241  -4.583 -32.181  0.00  0.00    +0.000 A 
ATOM     22  O   UNL     1     -45.467  -3.738 -31.551  0.00  0.00    +0.000 OA
BRANCH  18  26
ATOM     23  C   UNL     1     -42.676  -2.736 -32.885  0.00  0.00    +0.000 C 
ATOM     24  C   UNL     1     -43.148  -1.480 -32.164  0.00  0.00    +0.000 C 
ATOM     25  C   UNL     1     -44.089  -0.722 -33.076  0.00  0.00    +0.000 C 
ATOM     26  C   UNL     1     -44.651  -1.411 -31.847  0.00  0.00    +0.000 C 
ENDBRANCH  18  26
ENDBRANCH  17  21
ENDBRANCH  13  17
ENDBRANCH   1  15
BRANCH   9  27
ATOM     27  S   UNL     1     -46.123 -12.139 -29.203  0.00  0.00    +0.000 S 
ATOM     28  O   UNL     1     -47.452 -12.833 -29.316  0.00  0.00    +0.000 OA
ATOM     29  O   UNL     1     -45.557 -11.974 -30.586  0.00  0.00    +0.000 OA
BRANCH  27  30
ATOM     30  N   UNL     1     -45.042 -13.107 -28.251  0.00  0.00    +0.000 NA
ATOM     31  C   UNL     1     -45.837 -13.797 -27.232  0.00  0.00    +0.000 C 
ATOM     32  C   UNL     1     -44.959 -14.813 -26.498  0.00  0.00    +0.000 C 
ATOM     33  O   UNL     1     -44.480 -15.772 -27.411  0.00  0.00    +0.000 OA
ATOM     34  C   UNL     1     -43.623 -15.101 -28.302  0.00  0.00    +0.000 C 
ATOM     35  C   UNL     1     -44.423 -14.098 -29.136  0.00  0.00    +0.000 C 
ENDBRANCH  27  30
ENDBRANCH   9  27
TORSDOF 6
ENDMDL
