MODEL 1
REMARK VINA RESULT:      -7.2      0.000      0.000
REMARK  Name = ZINC000004257540
REMARK  8 active torsions:
REMARK  status: ('A' for Active; 'I' for Inactive)
REMARK    1  A    between atoms: C_6  and  O_23
REMARK    2  A    between atoms: C_11  and  C_12
REMARK    3  A    between atoms: O_23  and  C_24
REMARK    4  A    between atoms: C_26  and  C_36
REMARK    5  A    between atoms: C_27  and  O_28
REMARK    6  A    between atoms: C_29  and  O_30
REMARK    7  A    between atoms: C_31  and  O_32
REMARK    8  A    between atoms: C_36  and  O_37
REMARK                            x       y       z     vdW  Elec       q    Type
REMARK                         _______ _______ _______ _____ _____    ______ ____
ROOT
ATOM      1  O   UNL     1     -46.465 -13.821 -24.643  0.00  0.00    +0.000 OA
ATOM      2  C   UNL     1     -45.769 -14.663 -25.274  0.00  0.00    +0.000 A 
ATOM      3  C   UNL     1     -45.357 -15.841 -24.632  0.00  0.00    +0.000 A 
ATOM      4  C   UNL     1     -45.698 -16.110 -23.299  0.00  0.00    +0.000 A 
ATOM      5  C   UNL     1     -45.273 -17.294 -22.691  0.00  0.00    +0.000 A 
ATOM      6  C   UNL     1     -44.503 -18.224 -23.409  0.00  0.00    +0.000 A 
ATOM      7  C   UNL     1     -44.162 -17.956 -24.738  0.00  0.00    +0.000 A 
ATOM      8  C   UNL     1     -44.583 -16.774 -25.353  0.00  0.00    +0.000 A 
ATOM      9  O   UNL     1     -44.252 -16.534 -26.615  0.00  0.00    +0.000 OA
ATOM     10  C   UNL     1     -44.623 -15.430 -27.251  0.00  0.00    +0.000 A 
ATOM     11  C   UNL     1     -45.395 -14.439 -26.620  0.00  0.00    +0.000 A 
ENDROOT
BRANCH  11  12
ATOM     12  C   UNL     1     -45.777 -13.220 -27.397  0.00  0.00    +0.000 A 
ATOM     13  C   UNL     1     -46.608 -13.338 -28.523  0.00  0.00    +0.000 A 
ATOM     14  C   UNL     1     -46.994 -12.211 -29.252  0.00  0.00    +0.000 A 
ATOM     15  C   UNL     1     -46.552 -10.941 -28.874  0.00  0.00    +0.000 A 
ATOM     16  C   UNL     1     -45.659 -10.812 -27.787  0.00  0.00    +0.000 A 
ATOM     17  C   UNL     1     -45.306 -11.945 -27.048  0.00  0.00    +0.000 A 
ATOM     18  O   UNL     1     -45.075  -9.587 -27.447  0.00  0.00    +0.000 OA
ATOM     19  C   UNL     1     -44.776  -8.596 -28.425  0.00  0.00    +0.000 C 
ATOM     20  C   UNL     1     -45.997  -7.761 -28.792  0.00  0.00    +0.000 C 
ATOM     21  C   UNL     1     -47.274  -8.584 -28.916  0.00  0.00    +0.000 C 
ATOM     22  O   UNL     1     -47.046  -9.830 -29.565  0.00  0.00    +0.000 OA
ENDBRANCH  11  12
BRANCH   6  23
ATOM     23  O   UNL     1     -44.063 -19.417 -22.826  0.00  0.00    +0.000 OA
BRANCH  23  24
ATOM     24  C   UNL     1     -43.008 -19.473 -21.868  0.00  0.00    +0.000 C 
ATOM     25  O   UNL     1     -43.453 -20.149 -20.711  0.00  0.00    +0.000 OA
ATOM     26  C   UNL     1     -42.407 -20.067 -19.777  0.00  0.00    +0.000 C 
ATOM     27  C   UNL     1     -41.261 -21.033 -20.158  0.00  0.00    +0.000 C 
ATOM     28  C   UNL     1     -41.262 -21.339 -21.668  0.00  0.00    +0.000 C 
ATOM     29  C   UNL     1     -41.728 -20.114 -22.468  0.00  0.00    +0.000 C 
BRANCH  27  30
ATOM     30  O   UNL     1     -41.305 -22.221 -19.420  0.00  0.00    +0.000 OA
ATOM     31  H   UNL     1     -40.935 -22.945 -19.948  0.00  0.00    +0.000 HD
ENDBRANCH  27  30
BRANCH  28  32
ATOM     32  O   UNL     1     -42.094 -22.430 -21.946  0.00  0.00    +0.000 OA
ATOM     33  H   UNL     1     -41.600 -23.255 -21.811  0.00  0.00    +0.000 HD
ENDBRANCH  28  32
BRANCH  29  34
ATOM     34  O   UNL     1     -41.880 -20.432 -23.821  0.00  0.00    +0.000 OA
ATOM     35  H   UNL     1     -41.082 -20.172 -24.306  0.00  0.00    +0.000 HD
ENDBRANCH  29  34
BRANCH  26  36
ATOM     36  C   UNL     1     -42.926 -20.268 -18.361  0.00  0.00    +0.000 C 
BRANCH  36  37
ATOM     37  O   UNL     1     -43.639 -21.465 -18.284  0.00  0.00    +0.000 OA
ATOM     38  H   UNL     1     -44.442 -21.399 -18.825  0.00  0.00    +0.000 HD
ENDBRANCH  36  37
ENDBRANCH  26  36
ENDBRANCH  23  24
ENDBRANCH   6  23
TORSDOF 8
ENDMDL
MODEL 2
REMARK VINA RESULT:      -7.1      3.933      7.591
REMARK  Name = ZINC000004257540
REMARK  8 active torsions:
REMARK  status: ('A' for Active; 'I' for Inactive)
REMARK    1  A    between atoms: C_6  and  O_23
REMARK    2  A    between atoms: C_11  and  C_12
REMARK    3  A    between atoms: O_23  and  C_24
REMARK    4  A    between atoms: C_26  and  C_36
REMARK    5  A    between atoms: C_27  and  O_28
REMARK    6  A    between atoms: C_29  and  O_30
REMARK    7  A    between atoms: C_31  and  O_32
REMARK    8  A    between atoms: C_36  and  O_37
REMARK                            x       y       z     vdW  Elec       q    Type
REMARK                         _______ _______ _______ _____ _____    ______ ____
ROOT
ATOM      1  O   UNL     1     -46.702  -8.797 -30.849  0.00  0.00    +0.000 OA
ATOM      2  C   UNL     1     -46.584  -8.736 -29.595  0.00  0.00    +0.000 A 
ATOM      3  C   UNL     1     -46.630  -9.916 -28.837  0.00  0.00    +0.000 A 
ATOM      4  C   UNL     1     -46.807 -11.170 -29.437  0.00  0.00    +0.000 A 
ATOM      5  C   UNL     1     -46.846 -12.325 -28.652  0.00  0.00    +0.000 A 
ATOM      6  C   UNL     1     -46.707 -12.241 -27.258  0.00  0.00    +0.000 A 
ATOM      7  C   UNL     1     -46.531 -10.990 -26.657  0.00  0.00    +0.000 A 
ATOM      8  C   UNL     1     -46.491  -9.830 -27.436  0.00  0.00    +0.000 A 
ATOM      9  O   UNL     1     -46.323  -8.651 -26.851  0.00  0.00    +0.000 OA
ATOM     10  C   UNL     1     -46.277  -7.516 -27.538  0.00  0.00    +0.000 A 
ATOM     11  C   UNL     1     -46.405  -7.495 -28.938  0.00  0.00    +0.000 A 
ENDROOT
BRANCH  11  12
ATOM     12  C   UNL     1     -46.343  -6.181 -29.647  0.00  0.00    +0.000 A 
ATOM     13  C   UNL     1     -47.523  -5.457 -29.889  0.00  0.00    +0.000 A 
ATOM     14  C   UNL     1     -47.486  -4.218 -30.531  0.00  0.00    +0.000 A 
ATOM     15  C   UNL     1     -46.269  -3.677 -30.953  0.00  0.00    +0.000 A 
ATOM     16  C   UNL     1     -45.082  -4.423 -30.782  0.00  0.00    +0.000 A 
ATOM     17  C   UNL     1     -45.130  -5.647 -30.109  0.00  0.00    +0.000 A 
ATOM     18  O   UNL     1     -43.856  -3.997 -31.303  0.00  0.00    +0.000 OA
ATOM     19  C   UNL     1     -43.769  -3.241 -32.507  0.00  0.00    +0.000 C 
ATOM     20  C   UNL     1     -44.035  -1.758 -32.276  0.00  0.00    +0.000 C 
ATOM     21  C   UNL     1     -45.174  -1.496 -31.299  0.00  0.00    +0.000 C 
ATOM     22  O   UNL     1     -46.265  -2.388 -31.496  0.00  0.00    +0.000 OA
ENDBRANCH  11  12
BRANCH   6  23
ATOM     23  O   UNL     1     -46.744 -13.380 -26.447  0.00  0.00    +0.000 OA
BRANCH  23  24
ATOM     24  C   UNL     1     -45.797 -13.628 -25.410  0.00  0.00    +0.000 C 
ATOM     25  O   UNL     1     -46.470 -13.767 -24.177  0.00  0.00    +0.000 OA
ATOM     26  C   UNL     1     -45.473 -13.897 -23.194  0.00  0.00    +0.000 C 
ATOM     27  C   UNL     1     -44.837 -15.305 -23.247  0.00  0.00    +0.000 C 
ATOM     28  C   UNL     1     -44.981 -15.935 -24.646  0.00  0.00    +0.000 C 
ATOM     29  C   UNL     1     -44.906 -14.857 -25.736  0.00  0.00    +0.000 C 
BRANCH  27  30
ATOM     30  O   UNL     1     -45.361 -16.159 -22.271  0.00  0.00    +0.000 OA
ATOM     31  H   UNL     1     -46.138 -15.746 -21.862  0.00  0.00    +0.000 HD
ENDBRANCH  27  30
BRANCH  28  32
ATOM     32  O   UNL     1     -46.194 -16.627 -24.748  0.00  0.00    +0.000 OA
ATOM     33  H   UNL     1     -46.913 -16.069 -24.412  0.00  0.00    +0.000 HD
ENDBRANCH  28  32
BRANCH  29  34
ATOM     34  O   UNL     1     -45.190 -15.399 -26.992  0.00  0.00    +0.000 OA
ATOM     35  H   UNL     1     -45.059 -16.359 -26.968  0.00  0.00    +0.000 HD
ENDBRANCH  29  34
BRANCH  26  36
ATOM     36  C   UNL     1     -46.014 -13.525 -21.821  0.00  0.00    +0.000 C 
BRANCH  36  37
ATOM     37  O   UNL     1     -47.196 -14.223 -21.574  0.00  0.00    +0.000 OA
ATOM     38  H   UNL     1     -47.951 -13.706 -21.897  0.00  0.00    +0.000 HD
ENDBRANCH  36  37
ENDBRANCH  26  36
ENDBRANCH  23  24
ENDBRANCH   6  23
TORSDOF 8
ENDMDL
MODEL 3
REMARK VINA RESULT:      -7.0      9.089     14.682
REMARK  Name = ZINC000004257540
REMARK  8 active torsions:
REMARK  status: ('A' for Active; 'I' for Inactive)
REMARK    1  A    between atoms: C_6  and  O_23
REMARK    2  A    between atoms: C_11  and  C_12
REMARK    3  A    between atoms: O_23  and  C_24
REMARK    4  A    between atoms: C_26  and  C_36
REMARK    5  A    between atoms: C_27  and  O_28
REMARK    6  A    between atoms: C_29  and  O_30
REMARK    7  A    between atoms: C_31  and  O_32
REMARK    8  A    between atoms: C_36  and  O_37
REMARK                            x       y       z     vdW  Elec       q    Type
REMARK                         _______ _______ _______ _____ _____    ______ ____
ROOT
ATOM      1  O   UNL     1     -47.246  -4.427 -23.291  0.00  0.00    +0.000 OA
ATOM      2  C   UNL     1     -46.830  -5.213 -24.185  0.00  0.00    +0.000 A 
ATOM      3  C   UNL     1     -46.993  -4.874 -25.536  0.00  0.00    +0.000 A 
ATOM      4  C   UNL     1     -47.612  -3.677 -25.925  0.00  0.00    +0.000 A 
ATOM      5  C   UNL     1     -47.756  -3.370 -27.281  0.00  0.00    +0.000 A 
ATOM      6  C   UNL     1     -47.282  -4.253 -28.264  0.00  0.00    +0.000 A 
ATOM      7  C   UNL     1     -46.666  -5.447 -27.877  0.00  0.00    +0.000 A 
ATOM      8  C   UNL     1     -46.518  -5.763 -26.523  0.00  0.00    +0.000 A 
ATOM      9  O   UNL     1     -45.931  -6.899 -26.173  0.00  0.00    +0.000 OA
ATOM     10  C   UNL     1     -45.763  -7.252 -24.904  0.00  0.00    +0.000 A 
ATOM     11  C   UNL     1     -46.201  -6.435 -23.847  0.00  0.00    +0.000 A 
ENDROOT
BRANCH  11  12
ATOM     12  C   UNL     1     -45.978  -6.895 -22.442  0.00  0.00    +0.000 A 
ATOM     13  C   UNL     1     -44.904  -6.382 -21.697  0.00  0.00    +0.000 A 
ATOM     14  C   UNL     1     -44.689  -6.782 -20.377  0.00  0.00    +0.000 A 
ATOM     15  C   UNL     1     -45.541  -7.709 -19.773  0.00  0.00    +0.000 A 
ATOM     16  C   UNL     1     -46.584  -8.288 -20.529  0.00  0.00    +0.000 A 
ATOM     17  C   UNL     1     -46.806  -7.855 -21.839  0.00  0.00    +0.000 A 
ATOM     18  O   UNL     1     -47.383  -9.319 -20.024  0.00  0.00    +0.000 OA
ATOM     19  C   UNL     1     -46.882 -10.279 -19.098  0.00  0.00    +0.000 C 
ATOM     20  C   UNL     1     -46.885  -9.755 -17.667  0.00  0.00    +0.000 C 
ATOM     21  C   UNL     1     -46.449  -8.299 -17.558  0.00  0.00    +0.000 C 
ATOM     22  O   UNL     1     -45.354  -8.002 -18.418  0.00  0.00    +0.000 OA
ENDBRANCH  11  12
BRANCH   6  23
ATOM     23  O   UNL     1     -47.414  -3.972 -29.627  0.00  0.00    +0.000 OA
BRANCH  23  24
ATOM     24  C   UNL     1     -46.615  -4.594 -30.631  0.00  0.00    +0.000 C 
ATOM     25  O   UNL     1     -47.371  -5.587 -31.291  0.00  0.00    +0.000 OA
ATOM     26  C   UNL     1     -46.493  -6.227 -32.181  0.00  0.00    +0.000 C 
ATOM     27  C   UNL     1     -46.210  -5.328 -33.408  0.00  0.00    +0.000 C 
ATOM     28  C   UNL     1     -46.421  -3.839 -33.073  0.00  0.00    +0.000 C 
ATOM     29  C   UNL     1     -46.027  -3.550 -31.618  0.00  0.00    +0.000 C 
BRANCH  27  30
ATOM     30  O   UNL     1     -46.979  -5.693 -34.518  0.00  0.00    +0.000 OA
ATOM     31  H   UNL     1     -47.910  -5.767 -34.257  0.00  0.00    +0.000 HD
ENDBRANCH  27  30
BRANCH  28  32
ATOM     32  O   UNL     1     -47.756  -3.474 -33.283  0.00  0.00    +0.000 OA
ATOM     33  H   UNL     1     -47.982  -2.729 -32.703  0.00  0.00    +0.000 HD
ENDBRANCH  28  32
BRANCH  29  34
ATOM     34  O   UNL     1     -46.361  -2.240 -31.263  0.00  0.00    +0.000 OA
ATOM     35  H   UNL     1     -45.703  -1.628 -31.628  0.00  0.00    +0.000 HD
ENDBRANCH  29  34
BRANCH  26  36
ATOM     36  C   UNL     1     -47.006  -7.612 -32.548  0.00  0.00    +0.000 C 
BRANCH  36  37
ATOM     37  O   UNL     1     -46.216  -8.157 -33.560  0.00  0.00    +0.000 OA
ATOM     38  H   UNL     1     -46.055  -9.096 -33.374  0.00  0.00    +0.000 HD
ENDBRANCH  36  37
ENDBRANCH  26  36
ENDBRANCH  23  24
ENDBRANCH   6  23
TORSDOF 8
ENDMDL
