MODEL 1
REMARK VINA RESULT:      -8.4      0.000      0.000
REMARK  Name = ZINC000002970981 ZINC02970981 ChemDiv-K284-1944 MCULE-9607552090 MolPort-007-910-227 PubChem-5199573
REMARK  6 active torsions:
REMARK  status: ('A' for Active; 'I' for Inactive)
REMARK    1  A    between atoms: C_1  and  S_12
REMARK    2  A    between atoms: N_11  and  C_26
REMARK    3  A    between atoms: S_12  and  C_13
REMARK    4  A    between atoms: C_13  and  C_15
REMARK    5  A    between atoms: N_14  and  C_22
REMARK    6  A    between atoms: C_26  and  C_27
REMARK                            x       y       z     vdW  Elec       q    Type
REMARK                         _______ _______ _______ _____ _____    ______ ____
ROOT
ATOM      1  C   UNL     1     -46.808  -6.628 -31.790  0.00  0.00    +0.000 A 
ATOM      2  N   UNL     1     -46.608  -7.913 -31.396  0.00  0.00    +0.000 NA
ATOM      3  C   UNL     1     -46.256  -8.876 -32.281  0.00  0.00    +0.000 A 
ATOM      4  C   UNL     1     -46.053 -10.189 -31.846  0.00  0.00    +0.000 A 
ATOM      5  C   UNL     1     -45.688 -11.181 -32.761  0.00  0.00    +0.000 A 
ATOM      6  C   UNL     1     -45.525 -10.861 -34.112  0.00  0.00    +0.000 A 
ATOM      7  C   UNL     1     -45.727  -9.550 -34.553  0.00  0.00    +0.000 A 
ATOM      8  C   UNL     1     -46.094  -8.550 -33.640  0.00  0.00    +0.000 A 
ATOM      9  C   UNL     1     -46.311  -7.226 -34.038  0.00  0.00    +0.000 A 
ATOM     10  O   UNL     1     -46.180  -6.906 -35.253  0.00  0.00    +0.000 OA
ATOM     11  N   UNL     1     -46.667  -6.281 -33.111  0.00  0.00    +0.000 N 
ENDROOT
BRANCH   1  12
ATOM     12  S   UNL     1     -47.247  -5.418 -30.537  0.00  0.00    +0.000 S 
BRANCH  12  13
ATOM     13  C   UNL     1     -46.777  -6.545 -29.192  0.00  0.00    +0.000 C 
BRANCH  13  15
ATOM     14  N   UNL     1     -47.532  -5.000 -27.354  0.00  0.00    +0.000 N 
ATOM     15  C   UNL     1     -46.486  -5.771 -27.957  0.00  0.00    +0.000 C 
ATOM     16  O   UNL     1     -45.335  -5.826 -27.448  0.00  0.00    +0.000 OA
ATOM     17  H   UNL     1     -48.415  -5.039 -27.788  0.00  0.00    +0.000 HD
BRANCH  14  22
ATOM     18  C   UNL     1     -47.105  -1.577 -22.777  0.00  0.00    +0.000 C 
ATOM     19  C   UNL     1     -47.216  -2.496 -23.944  0.00  0.00    +0.000 A 
ATOM     20  C   UNL     1     -47.302  -1.951 -25.228  0.00  0.00    +0.000 A 
ATOM     21  C   UNL     1     -47.406  -2.787 -26.343  0.00  0.00    +0.000 A 
ATOM     22  C   UNL     1     -47.427  -4.175 -26.186  0.00  0.00    +0.000 A 
ATOM     23  C   UNL     1     -47.339  -4.722 -24.898  0.00  0.00    +0.000 A 
ATOM     24  C   UNL     1     -47.234  -3.892 -23.778  0.00  0.00    +0.000 A 
ATOM     25 CL   UNL     1     -47.126  -4.633 -22.188  0.00  0.00    +0.000 Cl
ENDBRANCH  14  22
ENDBRANCH  13  15
ENDBRANCH  12  13
ENDBRANCH   1  12
BRANCH  11  26
ATOM     26  C   UNL     1     -46.922  -4.907 -33.555  0.00  0.00    +0.000 C 
BRANCH  26  27
ATOM     27  C   UNL     1     -45.710  -4.038 -33.419  0.00  0.00    +0.000 A 
ATOM     28  C   UNL     1     -45.882  -2.638 -33.354  0.00  0.00    +0.000 A 
ATOM     29  C   UNL     1     -44.771  -1.780 -33.258  0.00  0.00    +0.000 A 
ATOM     30  C   UNL     1     -43.508  -2.367 -33.234  0.00  0.00    +0.000 A 
ATOM     31  O   UNL     1     -42.278  -1.750 -33.139  0.00  0.00    +0.000 OA
ATOM     32  C   UNL     1     -41.268  -2.768 -33.156  0.00  0.00    +0.000 C 
ATOM     33  O   UNL     1     -41.988  -4.005 -33.269  0.00  0.00    +0.000 OA
ATOM     34  C   UNL     1     -43.337  -3.711 -33.311  0.00  0.00    +0.000 A 
ATOM     35  C   UNL     1     -44.411  -4.590 -33.414  0.00  0.00    +0.000 A 
ENDBRANCH  26  27
ENDBRANCH  11  26
TORSDOF 6
ENDMDL
MODEL 2
REMARK VINA RESULT:      -7.9      3.330      6.198
REMARK  Name = ZINC000002970981 ZINC02970981 ChemDiv-K284-1944 MCULE-9607552090 MolPort-007-910-227 PubChem-5199573
REMARK  6 active torsions:
REMARK  status: ('A' for Active; 'I' for Inactive)
REMARK    1  A    between atoms: C_1  and  S_12
REMARK    2  A    between atoms: N_11  and  C_26
REMARK    3  A    between atoms: S_12  and  C_13
REMARK    4  A    between atoms: C_13  and  C_15
REMARK    5  A    between atoms: N_14  and  C_22
REMARK    6  A    between atoms: C_26  and  C_27
REMARK                            x       y       z     vdW  Elec       q    Type
REMARK                         _______ _______ _______ _____ _____    ______ ____
ROOT
ATOM      1  C   UNL     1     -46.062  -6.754 -30.495  0.00  0.00    +0.000 A 
ATOM      2  N   UNL     1     -45.960  -7.140 -29.196  0.00  0.00    +0.000 NA
ATOM      3  C   UNL     1     -46.350  -6.327 -28.185  0.00  0.00    +0.000 A 
ATOM      4  C   UNL     1     -46.236  -6.752 -26.858  0.00  0.00    +0.000 A 
ATOM      5  C   UNL     1     -46.641  -5.912 -25.817  0.00  0.00    +0.000 A 
ATOM      6  C   UNL     1     -47.161  -4.646 -26.101  0.00  0.00    +0.000 A 
ATOM      7  C   UNL     1     -47.277  -4.215 -27.426  0.00  0.00    +0.000 A 
ATOM      8  C   UNL     1     -46.871  -5.053 -28.476  0.00  0.00    +0.000 A 
ATOM      9  C   UNL     1     -46.965  -4.661 -29.816  0.00  0.00    +0.000 A 
ATOM     10  O   UNL     1     -47.422  -3.520 -30.107  0.00  0.00    +0.000 OA
ATOM     11  N   UNL     1     -46.558  -5.513 -30.810  0.00  0.00    +0.000 N 
ENDROOT
BRANCH   1  12
ATOM     12  S   UNL     1     -45.543  -7.914 -31.765  0.00  0.00    +0.000 S 
BRANCH  12  13
ATOM     13  C   UNL     1     -46.976  -8.988 -31.461  0.00  0.00    +0.000 C 
BRANCH  13  15
ATOM     14  N   UNL     1     -47.065 -10.142 -29.226  0.00  0.00    +0.000 N 
ATOM     15  C   UNL     1     -46.588 -10.118 -30.577  0.00  0.00    +0.000 C 
ATOM     16  O   UNL     1     -45.870 -11.045 -31.036  0.00  0.00    +0.000 OA
ATOM     17  H   UNL     1     -47.655  -9.402 -28.953  0.00  0.00    +0.000 HD
BRANCH  14  22
ATOM     18  C   UNL     1     -45.941 -14.206 -25.344  0.00  0.00    +0.000 C 
ATOM     19  C   UNL     1     -46.224 -13.124 -26.328  0.00  0.00    +0.000 A 
ATOM     20  C   UNL     1     -46.614 -13.473 -27.624  0.00  0.00    +0.000 A 
ATOM     21  C   UNL     1     -46.888 -12.482 -28.569  0.00  0.00    +0.000 A 
ATOM     22  C   UNL     1     -46.772 -11.131 -28.230  0.00  0.00    +0.000 A 
ATOM     23  C   UNL     1     -46.383 -10.781 -26.930  0.00  0.00    +0.000 A 
ATOM     24  C   UNL     1     -46.109 -11.768 -25.978  0.00  0.00    +0.000 A 
ATOM     25 CL   UNL     1     -45.625 -11.269 -24.364  0.00  0.00    +0.000 Cl
ENDBRANCH  14  22
ENDBRANCH  13  15
ENDBRANCH  12  13
ENDBRANCH   1  12
BRANCH  11  26
ATOM     26  C   UNL     1     -46.634  -5.070 -32.205  0.00  0.00    +0.000 C 
BRANCH  26  27
ATOM     27  C   UNL     1     -45.541  -4.105 -32.549  0.00  0.00    +0.000 A 
ATOM     28  C   UNL     1     -45.868  -2.938 -33.274  0.00  0.00    +0.000 A 
ATOM     29  C   UNL     1     -44.870  -2.020 -33.647  0.00  0.00    +0.000 A 
ATOM     30  C   UNL     1     -43.560  -2.311 -33.277  0.00  0.00    +0.000 A 
ATOM     31  O   UNL     1     -42.418  -1.575 -33.516  0.00  0.00    +0.000 OA
ATOM     32  C   UNL     1     -41.307  -2.281 -32.946  0.00  0.00    +0.000 C 
ATOM     33  O   UNL     1     -41.875  -3.466 -32.369  0.00  0.00    +0.000 OA
ATOM     34  C   UNL     1     -43.238  -3.439 -32.593  0.00  0.00    +0.000 A 
ATOM     35  C   UNL     1     -44.196  -4.373 -32.214  0.00  0.00    +0.000 A 
ENDBRANCH  26  27
ENDBRANCH  11  26
TORSDOF 6
ENDMDL
MODEL 3
REMARK VINA RESULT:      -7.6      1.768      5.335
REMARK  Name = ZINC000002970981 ZINC02970981 ChemDiv-K284-1944 MCULE-9607552090 MolPort-007-910-227 PubChem-5199573
REMARK  6 active torsions:
REMARK  status: ('A' for Active; 'I' for Inactive)
REMARK    1  A    between atoms: C_1  and  S_12
REMARK    2  A    between atoms: N_11  and  C_26
REMARK    3  A    between atoms: S_12  and  C_13
REMARK    4  A    between atoms: C_13  and  C_15
REMARK    5  A    between atoms: N_14  and  C_22
REMARK    6  A    between atoms: C_26  and  C_27
REMARK                            x       y       z     vdW  Elec       q    Type
REMARK                         _______ _______ _______ _____ _____    ______ ____
ROOT
ATOM      1  C   UNL     1     -45.165  -5.137 -31.564  0.00  0.00    +0.000 A 
ATOM      2  N   UNL     1     -45.428  -3.834 -31.282  0.00  0.00    +0.000 NA
ATOM      3  C   UNL     1     -44.748  -2.830 -31.886  0.00  0.00    +0.000 A 
ATOM      4  C   UNL     1     -45.043  -1.499 -31.578  0.00  0.00    +0.000 A 
ATOM      5  C   UNL     1     -44.342  -0.465 -32.205  0.00  0.00    +0.000 A 
ATOM      6  C   UNL     1     -43.344  -0.760 -33.139  0.00  0.00    +0.000 A 
ATOM      7  C   UNL     1     -43.045  -2.090 -33.450  0.00  0.00    +0.000 A 
ATOM      8  C   UNL     1     -43.745  -3.132 -32.824  0.00  0.00    +0.000 A 
ATOM      9  C   UNL     1     -43.475  -4.478 -33.103  0.00  0.00    +0.000 A 
ATOM     10  O   UNL     1     -42.574  -4.779 -33.935  0.00  0.00    +0.000 OA
ATOM     11  N   UNL     1     -44.185  -5.465 -32.468  0.00  0.00    +0.000 N 
ENDROOT
BRANCH   1  12
ATOM     12  S   UNL     1     -46.139  -6.396 -30.731  0.00  0.00    +0.000 S 
BRANCH  12  13
ATOM     13  C   UNL     1     -47.261  -5.153 -30.025  0.00  0.00    +0.000 C 
BRANCH  13  15
ATOM     14  N   UNL     1     -47.685  -3.959 -27.851  0.00  0.00    +0.000 N 
ATOM     15  C   UNL     1     -46.955  -4.949 -28.585  0.00  0.00    +0.000 C 
ATOM     16  O   UNL     1     -46.081  -5.665 -28.030  0.00  0.00    +0.000 OA
ATOM     17  H   UNL     1     -48.380  -3.467 -28.344  0.00  0.00    +0.000 HD
BRANCH  14  22
ATOM     18  C   UNL     1     -46.965  -2.403 -22.382  0.00  0.00    +0.000 C 
ATOM     19  C   UNL     1     -47.152  -2.843 -23.792  0.00  0.00    +0.000 A 
ATOM     20  C   UNL     1     -47.280  -1.874 -24.792  0.00  0.00    +0.000 A 
ATOM     21  C   UNL     1     -47.455  -2.255 -26.124  0.00  0.00    +0.000 A 
ATOM     22  C   UNL     1     -47.507  -3.607 -26.472  0.00  0.00    +0.000 A 
ATOM     23  C   UNL     1     -47.376  -4.579 -25.470  0.00  0.00    +0.000 A 
ATOM     24  C   UNL     1     -47.200  -4.205 -24.134  0.00  0.00    +0.000 A 
ATOM     25 CL   UNL     1     -47.042  -5.467 -22.921  0.00  0.00    +0.000 Cl
ENDBRANCH  14  22
ENDBRANCH  13  15
ENDBRANCH  12  13
ENDBRANCH   1  12
BRANCH  11  26
ATOM     26  C   UNL     1     -43.864  -6.867 -32.749  0.00  0.00    +0.000 C 
BRANCH  26  27
ATOM     27  C   UNL     1     -44.721  -7.433 -33.839  0.00  0.00    +0.000 A 
ATOM     28  C   UNL     1     -45.265  -6.554 -34.801  0.00  0.00    +0.000 A 
ATOM     29  C   UNL     1     -46.102  -7.036 -35.824  0.00  0.00    +0.000 A 
ATOM     30  C   UNL     1     -46.368  -8.402 -35.844  0.00  0.00    +0.000 A 
ATOM     31  O   UNL     1     -47.144  -9.111 -36.738  0.00  0.00    +0.000 OA
ATOM     32  C   UNL     1     -47.122 -10.492 -36.348  0.00  0.00    +0.000 C 
ATOM     33  O   UNL     1     -46.293 -10.534 -35.177  0.00  0.00    +0.000 OA
ATOM     34  C   UNL     1     -45.860  -9.249 -34.913  0.00  0.00    +0.000 A 
ATOM     35  C   UNL     1     -45.036  -8.808 -33.883  0.00  0.00    +0.000 A 
ENDBRANCH  26  27
ENDBRANCH  11  26
TORSDOF 6
ENDMDL
