MODEL 1
REMARK VINA RESULT:      -7.3      0.000      0.000
REMARK  Name = ZINC000067847368 ZINC67847368 MCULE-8338375840 MolPort-016-608-745 PubChem-50964388
REMARK  5 active torsions:
REMARK  status: ('A' for Active; 'I' for Inactive)
REMARK    1  A    between atoms: C_1  and  C_9
REMARK    2  A    between atoms: C_3  and  C_22
REMARK    3  A    between atoms: N_5  and  C_15
REMARK    4  A    between atoms: C_22  and  C_23
REMARK    5  A    between atoms: C_23  and  C_24
REMARK                            x       y       z     vdW  Elec       q    Type
REMARK                         _______ _______ _______ _____ _____    ______ ____
ROOT
ATOM      1  C   UNL     1     -46.269  -5.475 -29.135  0.00  0.00    +0.000 A 
ATOM      2  N   UNL     1     -46.685  -5.547 -27.853  0.00  0.00    +0.000 NA
ATOM      3  C   UNL     1     -47.198  -4.316 -27.648  0.00  0.00    +0.000 A 
ATOM      4  N   UNL     1     -47.099  -3.520 -28.729  0.00  0.00    +0.000 NA
ATOM      5  N   UNL     1     -46.524  -4.254 -29.665  0.00  0.00    +0.000 N 
ENDROOT
BRANCH   1   9
ATOM      6  C   UNL     1     -46.251  -9.956 -31.310  0.00  0.00    +0.000 C 
ATOM      7  C   UNL     1     -45.519  -8.762 -30.813  0.00  0.00    +0.000 A 
ATOM      8  C   UNL     1     -46.224  -7.701 -30.241  0.00  0.00    +0.000 A 
ATOM      9  C   UNL     1     -45.529  -6.575 -29.784  0.00  0.00    +0.000 A 
ATOM     10  C   UNL     1     -44.132  -6.553 -29.879  0.00  0.00    +0.000 A 
ATOM     11  C   UNL     1     -43.462  -7.632 -30.459  0.00  0.00    +0.000 A 
ATOM     12  O   UNL     1     -42.209  -7.613 -30.558  0.00  0.00    +0.000 OA
ATOM     13  N   UNL     1     -44.164  -8.706 -30.911  0.00  0.00    +0.000 N 
ATOM     14  H   UNL     1     -43.680  -9.459 -31.320  0.00  0.00    +0.000 HD
ENDBRANCH   1   9
BRANCH   5  15
ATOM     15  C   UNL     1     -46.345  -3.791 -31.013  0.00  0.00    +0.000 A 
ATOM     16  C   UNL     1     -45.411  -2.781 -31.284  0.00  0.00    +0.000 A 
ATOM     17  C   UNL     1     -45.259  -2.289 -32.583  0.00  0.00    +0.000 A 
ATOM     18  C   UNL     1     -44.258  -1.228 -32.862  0.00  0.00    +0.000 C 
ATOM     19  C   UNL     1     -46.052  -2.791 -33.619  0.00  0.00    +0.000 A 
ATOM     20  C   UNL     1     -47.001  -3.782 -33.353  0.00  0.00    +0.000 A 
ATOM     21  C   UNL     1     -47.152  -4.275 -32.054  0.00  0.00    +0.000 A 
ENDBRANCH   5  15
BRANCH   3  22
ATOM     22  C   UNL     1     -47.756  -3.865 -26.344  0.00  0.00    +0.000 C 
BRANCH  22  23
ATOM     23  C   UNL     1     -47.230  -4.749 -25.227  0.00  0.00    +0.000 C 
BRANCH  23  24
ATOM     24  C   UNL     1     -47.059  -3.962 -23.973  0.00  0.00    +0.000 A 
ATOM     25  C   UNL     1     -46.671  -4.612 -22.796  0.00  0.00    +0.000 A 
ATOM     26  C   UNL     1     -46.522  -3.887 -21.610  0.00  0.00    +0.000 A 
ATOM     27  C   UNL     1     -46.764  -2.510 -21.598  0.00  0.00    +0.000 A 
ATOM     28  C   UNL     1     -47.159  -1.858 -22.771  0.00  0.00    +0.000 A 
ATOM     29  C   UNL     1     -47.308  -2.583 -23.957  0.00  0.00    +0.000 A 
ENDBRANCH  23  24
ENDBRANCH  22  23
ENDBRANCH   3  22
TORSDOF 5
ENDMDL
MODEL 2
REMARK VINA RESULT:      -7.2      2.682      6.886
REMARK  Name = ZINC000067847368 ZINC67847368 MCULE-8338375840 MolPort-016-608-745 PubChem-50964388
REMARK  5 active torsions:
REMARK  status: ('A' for Active; 'I' for Inactive)
REMARK    1  A    between atoms: C_1  and  C_9
REMARK    2  A    between atoms: C_3  and  C_22
REMARK    3  A    between atoms: N_5  and  C_15
REMARK    4  A    between atoms: C_22  and  C_23
REMARK    5  A    between atoms: C_23  and  C_24
REMARK                            x       y       z     vdW  Elec       q    Type
REMARK                         _______ _______ _______ _____ _____    ______ ____
ROOT
ATOM      1  C   UNL     1     -46.170  -6.598 -28.462  0.00  0.00    +0.000 A 
ATOM      2  N   UNL     1     -45.980  -6.729 -29.791  0.00  0.00    +0.000 NA
ATOM      3  C   UNL     1     -46.393  -5.534 -30.260  0.00  0.00    +0.000 A 
ATOM      4  N   UNL     1     -46.824  -4.710 -29.287  0.00  0.00    +0.000 NA
ATOM      5  N   UNL     1     -46.673  -5.378 -28.157  0.00  0.00    +0.000 N 
ENDROOT
BRANCH   1   9
ATOM      6  C   UNL     1     -43.145  -9.164 -25.447  0.00  0.00    +0.000 C 
ATOM      7  C   UNL     1     -44.476  -8.977 -26.083  0.00  0.00    +0.000 A 
ATOM      8  C   UNL     1     -44.694  -7.892 -26.935  0.00  0.00    +0.000 A 
ATOM      9  C   UNL     1     -45.952  -7.716 -27.522  0.00  0.00    +0.000 A 
ATOM     10  C   UNL     1     -46.959  -8.656 -27.268  0.00  0.00    +0.000 A 
ATOM     11  C   UNL     1     -46.704  -9.727 -26.409  0.00  0.00    +0.000 A 
ATOM     12  O   UNL     1     -47.607 -10.567 -26.168  0.00  0.00    +0.000 OA
ATOM     13  N   UNL     1     -45.477  -9.863 -25.838  0.00  0.00    +0.000 N 
ATOM     14  H   UNL     1     -45.311 -10.621 -25.233  0.00  0.00    +0.000 HD
ENDBRANCH   1   9
BRANCH   5  15
ATOM     15  C   UNL     1     -46.921  -4.790 -26.869  0.00  0.00    +0.000 A 
ATOM     16  C   UNL     1     -47.183  -3.417 -26.769  0.00  0.00    +0.000 A 
ATOM     17  C   UNL     1     -47.379  -2.824 -25.519  0.00  0.00    +0.000 A 
ATOM     18  C   UNL     1     -47.668  -1.370 -25.424  0.00  0.00    +0.000 C 
ATOM     19  C   UNL     1     -47.300  -3.598 -24.357  0.00  0.00    +0.000 A 
ATOM     20  C   UNL     1     -47.018  -4.963 -24.447  0.00  0.00    +0.000 A 
ATOM     21  C   UNL     1     -46.822  -5.556 -25.697  0.00  0.00    +0.000 A 
ENDBRANCH   5  15
BRANCH   3  22
ATOM     22  C   UNL     1     -46.427  -5.185 -31.706  0.00  0.00    +0.000 C 
BRANCH  22  23
ATOM     23  C   UNL     1     -47.033  -3.804 -31.887  0.00  0.00    +0.000 C 
BRANCH  23  24
ATOM     24  C   UNL     1     -45.980  -2.810 -32.233  0.00  0.00    +0.000 A 
ATOM     25  C   UNL     1     -45.403  -2.826 -33.507  0.00  0.00    +0.000 A 
ATOM     26  C   UNL     1     -44.402  -1.907 -33.838  0.00  0.00    +0.000 A 
ATOM     27  C   UNL     1     -43.973  -0.972 -32.892  0.00  0.00    +0.000 A 
ATOM     28  C   UNL     1     -44.541  -0.957 -31.614  0.00  0.00    +0.000 A 
ATOM     29  C   UNL     1     -45.542  -1.876 -31.283  0.00  0.00    +0.000 A 
ENDBRANCH  23  24
ENDBRANCH  22  23
ENDBRANCH   3  22
TORSDOF 5
ENDMDL
MODEL 3
REMARK VINA RESULT:      -7.1      2.355      3.258
REMARK  Name = ZINC000067847368 ZINC67847368 MCULE-8338375840 MolPort-016-608-745 PubChem-50964388
REMARK  5 active torsions:
REMARK  status: ('A' for Active; 'I' for Inactive)
REMARK    1  A    between atoms: C_1  and  C_9
REMARK    2  A    between atoms: C_3  and  C_22
REMARK    3  A    between atoms: N_5  and  C_15
REMARK    4  A    between atoms: C_22  and  C_23
REMARK    5  A    between atoms: C_23  and  C_24
REMARK                            x       y       z     vdW  Elec       q    Type
REMARK                         _______ _______ _______ _____ _____    ______ ____
ROOT
ATOM      1  C   UNL     1     -46.573  -4.907 -31.296  0.00  0.00    +0.000 A 
ATOM      2  N   UNL     1     -47.411  -5.216 -30.284  0.00  0.00    +0.000 NA
ATOM      3  C   UNL     1     -47.114  -4.273 -29.367  0.00  0.00    +0.000 A 
ATOM      4  N   UNL     1     -46.143  -3.434 -29.773  0.00  0.00    +0.000 NA
ATOM      5  N   UNL     1     -45.812  -3.829 -30.990  0.00  0.00    +0.000 N 
ENDROOT
BRANCH   1   9
ATOM      6  C   UNL     1     -45.113  -9.140 -33.479  0.00  0.00    +0.000 C 
ATOM      7  C   UNL     1     -45.724  -7.788 -33.569  0.00  0.00    +0.000 A 
ATOM      8  C   UNL     1     -45.873  -7.014 -32.416  0.00  0.00    +0.000 A 
ATOM      9  C   UNL     1     -46.459  -5.746 -32.506  0.00  0.00    +0.000 A 
ATOM     10  C   UNL     1     -46.850  -5.265 -33.762  0.00  0.00    +0.000 A 
ATOM     11  C   UNL     1     -46.686  -6.069 -34.891  0.00  0.00    +0.000 A 
ATOM     12  O   UNL     1     -47.047  -5.647 -36.019  0.00  0.00    +0.000 OA
ATOM     13  N   UNL     1     -46.131  -7.305 -34.772  0.00  0.00    +0.000 N 
ATOM     14  H   UNL     1     -46.023  -7.862 -35.576  0.00  0.00    +0.000 HD
ENDBRANCH   1   9
BRANCH   5  15
ATOM     15  C   UNL     1     -44.877  -3.110 -31.812  0.00  0.00    +0.000 A 
ATOM     16  C   UNL     1     -43.750  -3.767 -32.322  0.00  0.00    +0.000 A 
ATOM     17  C   UNL     1     -42.809  -3.069 -33.084  0.00  0.00    +0.000 A 
ATOM     18  C   UNL     1     -41.623  -3.778 -33.631  0.00  0.00    +0.000 C 
ATOM     19  C   UNL     1     -42.981  -1.703 -33.328  0.00  0.00    +0.000 A 
ATOM     20  C   UNL     1     -44.091  -1.035 -32.804  0.00  0.00    +0.000 A 
ATOM     21  C   UNL     1     -45.032  -1.735 -32.043  0.00  0.00    +0.000 A 
ENDBRANCH   5  15
BRANCH   3  22
ATOM     22  C   UNL     1     -47.748  -4.205 -28.022  0.00  0.00    +0.000 C 
BRANCH  22  23
ATOM     23  C   UNL     1     -46.771  -4.696 -26.969  0.00  0.00    +0.000 C 
BRANCH  23  24
ATOM     24  C   UNL     1     -47.003  -4.001 -25.672  0.00  0.00    +0.000 A 
ATOM     25  C   UNL     1     -47.240  -2.622 -25.659  0.00  0.00    +0.000 A 
ATOM     26  C   UNL     1     -47.444  -1.956 -24.447  0.00  0.00    +0.000 A 
ATOM     27  C   UNL     1     -47.409  -2.668 -23.244  0.00  0.00    +0.000 A 
ATOM     28  C   UNL     1     -47.166  -4.045 -23.252  0.00  0.00    +0.000 A 
ATOM     29  C   UNL     1     -46.961  -4.711 -24.465  0.00  0.00    +0.000 A 
ENDBRANCH  23  24
ENDBRANCH  22  23
ENDBRANCH   3  22
TORSDOF 5
ENDMDL
