MODEL 1
REMARK VINA RESULT:      -7.6      0.000      0.000
REMARK  Name = ZINC000032678714 ZINC32678714 CSC028068244 MCULE-2237337451 MolPort-005-701-896 PubChem-39911757
REMARK  4 active torsions:
REMARK  status: ('A' for Active; 'I' for Inactive)
REMARK    1  A    between atoms: C_1  and  N_19
REMARK    2  A    between atoms: C_5  and  C_7
REMARK    3  A    between atoms: C_17  and  C_25
REMARK    4  A    between atoms: C_21  and  C_30
REMARK                            x       y       z     vdW  Elec       q    Type
REMARK                         _______ _______ _______ _____ _____    ______ ____
ROOT
ATOM      1  C   UNL     1     -46.685  -7.380 -31.620  0.00  0.00    +0.000 A 
ATOM      2  C   UNL     1     -46.256  -8.689 -31.353  0.00  0.00    +0.000 A 
ATOM      3  C   UNL     1     -45.994  -9.089 -30.040  0.00  0.00    +0.000 A 
ATOM      4  C   UNL     1     -46.169  -8.187 -28.988  0.00  0.00    +0.000 A 
ATOM      5  C   UNL     1     -46.610  -6.881 -29.241  0.00  0.00    +0.000 A 
ATOM      6  C   UNL     1     -46.871  -6.487 -30.560  0.00  0.00    +0.000 A 
ENDROOT
BRANCH   5   7
ATOM      7  C   UNL     1     -46.798  -5.933 -28.130  0.00  0.00    +0.000 A 
ATOM      8  N   UNL     1     -47.019  -4.604 -28.327  0.00  0.00    +0.000 NA
ATOM      9  C   UNL     1     -47.127  -4.138 -27.075  0.00  0.00    +0.000 A 
ATOM     10  C   UNL     1     -47.359  -2.826 -26.672  0.00  0.00    +0.000 A 
ATOM     11  C   UNL     1     -47.433  -2.577 -25.289  0.00  0.00    +0.000 A 
ATOM     12  C   UNL     1     -47.276  -3.631 -24.360  0.00  0.00    +0.000 A 
ATOM     13  C   UNL     1     -47.042  -4.946 -24.805  0.00  0.00    +0.000 A 
ATOM     14  C   UNL     1     -46.976  -5.154 -26.180  0.00  0.00    +0.000 A 
ATOM     15  N   UNL     1     -46.764  -6.311 -26.823  0.00  0.00    +0.000 N 
ATOM     16  H   UNL     1     -46.620  -7.208 -26.446  0.00  0.00    +0.000 HD
ENDBRANCH   5   7
BRANCH   1  19
ATOM     17  C   UNL     1     -46.150  -6.113 -33.770  0.00  0.00    +0.000 C 
ATOM     18  O   UNL     1     -46.114  -6.322 -35.010  0.00  0.00    +0.000 OA
ATOM     19  N   UNL     1     -46.984  -6.947 -32.954  0.00  0.00    +0.000 N 
ATOM     20  H   UNL     1     -47.835  -7.248 -33.344  0.00  0.00    +0.000 HD
BRANCH  17  25
ATOM     21  C   UNL     1     -44.669  -3.005 -32.521  0.00  0.00    +0.000 A 
ATOM     22  C   UNL     1     -43.651  -3.947 -32.422  0.00  0.00    +0.000 A 
ATOM     23  C   UNL     1     -42.265  -3.709 -31.931  0.00  0.00    +0.000 C 
ATOM     24  N   UNL     1     -44.061  -5.158 -32.848  0.00  0.00    +0.000 N 
ATOM     25  C   UNL     1     -45.351  -5.007 -33.209  0.00  0.00    +0.000 A 
ATOM     26  C   UNL     1     -45.758  -3.693 -33.034  0.00  0.00    +0.000 A 
ATOM     27  C   UNL     1     -47.073  -3.108 -33.431  0.00  0.00    +0.000 C 
ATOM     28  H   UNL     1     -43.528  -5.985 -32.887  0.00  0.00    +0.000 HD
BRANCH  21  30
ATOM     29  C   UNL     1     -43.810  -0.600 -32.980  0.00  0.00    +0.000 C 
ATOM     30  C   UNL     1     -44.616  -1.563 -32.180  0.00  0.00    +0.000 C 
ATOM     31  O   UNL     1     -45.261  -1.124 -31.192  0.00  0.00    +0.000 OA
ENDBRANCH  21  30
ENDBRANCH  17  25
ENDBRANCH   1  19
TORSDOF 4
ENDMDL
MODEL 2
REMARK VINA RESULT:      -7.5      1.919      2.650
REMARK  Name = ZINC000032678714 ZINC32678714 CSC028068244 MCULE-2237337451 MolPort-005-701-896 PubChem-39911757
REMARK  4 active torsions:
REMARK  status: ('A' for Active; 'I' for Inactive)
REMARK    1  A    between atoms: C_1  and  N_19
REMARK    2  A    between atoms: C_5  and  C_7
REMARK    3  A    between atoms: C_17  and  C_25
REMARK    4  A    between atoms: C_21  and  C_30
REMARK                            x       y       z     vdW  Elec       q    Type
REMARK                         _______ _______ _______ _____ _____    ______ ____
ROOT
ATOM      1  C   UNL     1     -47.345  -4.910 -30.902  0.00  0.00    +0.000 A 
ATOM      2  C   UNL     1     -46.913  -6.241 -30.996  0.00  0.00    +0.000 A 
ATOM      3  C   UNL     1     -46.540  -6.942 -29.846  0.00  0.00    +0.000 A 
ATOM      4  C   UNL     1     -46.607  -6.320 -28.597  0.00  0.00    +0.000 A 
ATOM      5  C   UNL     1     -47.049  -4.995 -28.489  0.00  0.00    +0.000 A 
ATOM      6  C   UNL     1     -47.421  -4.298 -29.647  0.00  0.00    +0.000 A 
ENDROOT
BRANCH   5   7
ATOM      7  C   UNL     1     -47.122  -4.341 -27.172  0.00  0.00    +0.000 A 
ATOM      8  N   UNL     1     -47.309  -3.001 -27.024  0.00  0.00    +0.000 NA
ATOM      9  C   UNL     1     -47.309  -2.852 -25.693  0.00  0.00    +0.000 A 
ATOM     10  C   UNL     1     -47.465  -1.673 -24.969  0.00  0.00    +0.000 A 
ATOM     11  C   UNL     1     -47.429  -1.766 -23.565  0.00  0.00    +0.000 A 
ATOM     12  C   UNL     1     -47.242  -3.016 -22.933  0.00  0.00    +0.000 A 
ATOM     13  C   UNL     1     -47.088  -4.187 -23.699  0.00  0.00    +0.000 A 
ATOM     14  C   UNL     1     -47.129  -4.056 -25.083  0.00  0.00    +0.000 A 
ATOM     15  N   UNL     1     -47.006  -5.026 -26.001  0.00  0.00    +0.000 N 
ATOM     16  H   UNL     1     -46.867  -5.990 -25.863  0.00  0.00    +0.000 HD
ENDBRANCH   5   7
BRANCH   1  19
ATOM     17  C   UNL     1     -46.969  -3.960 -33.241  0.00  0.00    +0.000 C 
ATOM     18  O   UNL     1     -47.549  -3.932 -34.357  0.00  0.00    +0.000 OA
ATOM     19  N   UNL     1     -47.756  -4.172 -32.060  0.00  0.00    +0.000 N 
ATOM     20  H   UNL     1     -48.657  -3.777 -32.045  0.00  0.00    +0.000 HD
BRANCH  17  25
ATOM     21  C   UNL     1     -43.308  -4.047 -33.310  0.00  0.00    +0.000 A 
ATOM     22  C   UNL     1     -43.623  -2.811 -32.755  0.00  0.00    +0.000 A 
ATOM     23  C   UNL     1     -42.659  -1.779 -32.283  0.00  0.00    +0.000 C 
ATOM     24  N   UNL     1     -44.956  -2.637 -32.673  0.00  0.00    +0.000 N 
ATOM     25  C   UNL     1     -45.509  -3.752 -33.189  0.00  0.00    +0.000 A 
ATOM     26  C   UNL     1     -44.527  -4.649 -33.581  0.00  0.00    +0.000 A 
ATOM     27  C   UNL     1     -44.741  -6.038 -34.084  0.00  0.00    +0.000 C 
ATOM     28  H   UNL     1     -45.430  -1.854 -32.310  0.00  0.00    +0.000 HD
BRANCH  21  30
ATOM     29  C   UNL     1     -41.306  -4.554 -34.881  0.00  0.00    +0.000 C 
ATOM     30  C   UNL     1     -41.965  -4.627 -33.547  0.00  0.00    +0.000 C 
ATOM     31  O   UNL     1     -41.351  -5.202 -32.611  0.00  0.00    +0.000 OA
ENDBRANCH  21  30
ENDBRANCH  17  25
ENDBRANCH   1  19
TORSDOF 4
ENDMDL
MODEL 3
REMARK VINA RESULT:      -7.0      3.727      7.282
REMARK  Name = ZINC000032678714 ZINC32678714 CSC028068244 MCULE-2237337451 MolPort-005-701-896 PubChem-39911757
REMARK  4 active torsions:
REMARK  status: ('A' for Active; 'I' for Inactive)
REMARK    1  A    between atoms: C_1  and  N_19
REMARK    2  A    between atoms: C_5  and  C_7
REMARK    3  A    between atoms: C_17  and  C_25
REMARK    4  A    between atoms: C_21  and  C_30
REMARK                            x       y       z     vdW  Elec       q    Type
REMARK                         _______ _______ _______ _____ _____    ______ ____
ROOT
ATOM      1  C   UNL     1     -47.353  -7.688 -30.233  0.00  0.00    +0.000 A 
ATOM      2  C   UNL     1     -47.458  -8.602 -31.292  0.00  0.00    +0.000 A 
ATOM      3  C   UNL     1     -47.035  -8.244 -32.574  0.00  0.00    +0.000 A 
ATOM      4  C   UNL     1     -46.495  -6.977 -32.804  0.00  0.00    +0.000 A 
ATOM      5  C   UNL     1     -46.371  -6.060 -31.751  0.00  0.00    +0.000 A 
ATOM      6  C   UNL     1     -46.798  -6.425 -30.467  0.00  0.00    +0.000 A 
ENDROOT
BRANCH   5   7
ATOM      7  C   UNL     1     -45.798  -4.725 -31.992  0.00  0.00    +0.000 A 
ATOM      8  N   UNL     1     -45.068  -4.427 -33.102  0.00  0.00    +0.000 NA
ATOM      9  C   UNL     1     -44.756  -3.138 -32.907  0.00  0.00    +0.000 A 
ATOM     10  C   UNL     1     -44.010  -2.309 -33.740  0.00  0.00    +0.000 A 
ATOM     11  C   UNL     1     -43.813  -0.979 -33.321  0.00  0.00    +0.000 A 
ATOM     12  C   UNL     1     -44.359  -0.523 -32.100  0.00  0.00    +0.000 A 
ATOM     13  C   UNL     1     -45.108  -1.392 -31.284  0.00  0.00    +0.000 A 
ATOM     14  C   UNL     1     -45.283  -2.698 -31.731  0.00  0.00    +0.000 A 
ATOM     15  N   UNL     1     -45.952  -3.689 -31.124  0.00  0.00    +0.000 N 
ATOM     16  H   UNL     1     -46.435  -3.670 -30.267  0.00  0.00    +0.000 HD
ENDBRANCH   5   7
BRANCH   1  19
ATOM     17  C   UNL     1     -47.010  -8.845 -27.984  0.00  0.00    +0.000 C 
ATOM     18  O   UNL     1     -47.050  -8.566 -26.758  0.00  0.00    +0.000 OA
ATOM     19  N   UNL     1     -47.756  -8.033 -28.902  0.00  0.00    +0.000 N 
ATOM     20  H   UNL     1     -48.621  -7.683 -28.589  0.00  0.00    +0.000 HD
BRANCH  17  25
ATOM     21  C   UNL     1     -44.583 -11.304 -29.201  0.00  0.00    +0.000 A 
ATOM     22  C   UNL     1     -45.752 -12.030 -28.999  0.00  0.00    +0.000 A 
ATOM     23  C   UNL     1     -45.948 -13.485 -29.251  0.00  0.00    +0.000 C 
ATOM     24  N   UNL     1     -46.744 -11.243 -28.539  0.00  0.00    +0.000 N 
ATOM     25  C   UNL     1     -46.216 -10.008 -28.427  0.00  0.00    +0.000 A 
ATOM     26  C   UNL     1     -44.892 -10.003 -28.836  0.00  0.00    +0.000 A 
ATOM     27  C   UNL     1     -44.007  -8.807 -28.972  0.00  0.00    +0.000 C 
ATOM     28  H   UNL     1     -47.666 -11.514 -28.327  0.00  0.00    +0.000 HD
BRANCH  21  30
ATOM     29  C   UNL     1     -42.964 -11.775 -31.173  0.00  0.00    +0.000 C 
ATOM     30  C   UNL     1     -43.283 -11.791 -29.719  0.00  0.00    +0.000 C 
ATOM     31  O   UNL     1     -42.413 -12.236 -28.924  0.00  0.00    +0.000 OA
ENDBRANCH  21  30
ENDBRANCH  17  25
ENDBRANCH   1  19
TORSDOF 4
ENDMDL
