MODEL 1
REMARK VINA RESULT:      -7.3      0.000      0.000
REMARK  Name = ZINC000096181382 ZINC96181382 PubChem-97457252
REMARK  4 active torsions:
REMARK  status: ('A' for Active; 'I' for Inactive)
REMARK    1  A    between atoms: C_5  and  C_8
REMARK    2  A    between atoms: C_9  and  C_13
REMARK    3  A    between atoms: C_14  and  C_15
REMARK    4  A    between atoms: C_14  and  N_24
REMARK                            x       y       z     vdW  Elec       q    Type
REMARK                         _______ _______ _______ _____ _____    ______ ____
ROOT
ATOM      1  C   UNL     1     -47.046  -5.922 -26.284  0.00  0.00    +0.000 C 
ATOM      2  C   UNL     1     -45.971  -5.686 -27.362  0.00  0.00    +0.000 C 
ATOM      3  C   UNL     1     -45.003  -6.876 -27.324  0.00  0.00    +0.000 C 
ATOM      4  C   UNL     1     -45.521  -7.699 -26.214  0.00  0.00    +0.000 C 
ATOM      5  C   UNL     1     -47.524  -7.858 -24.669  0.00  0.00    +0.000 C 
ATOM      6  O   UNL     1     -45.008  -8.792 -25.855  0.00  0.00    +0.000 OA
ATOM      7  N   UNL     1     -46.667  -7.146 -25.603  0.00  0.00    +0.000 N 
ENDROOT
BRANCH   1  12
ATOM      8  C   UNL     1     -47.273  -1.416 -22.663  0.00  0.00    +0.000 C 
ATOM      9  C   UNL     1     -47.216  -2.578 -23.587  0.00  0.00    +0.000 A 
ATOM     10  C   UNL     1     -47.340  -2.383 -24.965  0.00  0.00    +0.000 A 
ATOM     11  C   UNL     1     -47.285  -3.476 -25.835  0.00  0.00    +0.000 A 
ATOM     12  C   UNL     1     -47.109  -4.769 -25.330  0.00  0.00    +0.000 A 
ATOM     13  C   UNL     1     -46.983  -4.962 -23.946  0.00  0.00    +0.000 A 
ATOM     14  C   UNL     1     -47.037  -3.868 -23.077  0.00  0.00    +0.000 A 
ENDBRANCH   1  12
BRANCH   2  15
ATOM     15  C   UNL     1     -46.599  -5.558 -28.709  0.00  0.00    +0.000 C 
ATOM     16  O   UNL     1     -47.119  -6.571 -29.247  0.00  0.00    +0.000 OA
ATOM     17  N   UNL     1     -46.606  -4.297 -29.382  0.00  0.00    +0.000 NA
BRANCH  17  18
ATOM     18  C   UNL     1     -47.200  -4.127 -30.697  0.00  0.00    +0.000 C 
BRANCH  18  19
ATOM     19  C   UNL     1     -46.341  -3.238 -31.525  0.00  0.00    +0.000 A 
ATOM     20  C   UNL     1     -46.315  -3.386 -32.916  0.00  0.00    +0.000 A 
ATOM     21  C   UNL     1     -45.489  -2.567 -33.691  0.00  0.00    +0.000 A 
ATOM     22  C   UNL     1     -44.685  -1.601 -33.076  0.00  0.00    +0.000 A 
ATOM     23  C   UNL     1     -44.705  -1.457 -31.685  0.00  0.00    +0.000 A 
ATOM     24  C   UNL     1     -45.531  -2.277 -30.910  0.00  0.00    +0.000 A 
ENDBRANCH  18  19
ENDBRANCH  17  18
ENDBRANCH   2  15
TORSDOF 4
ENDMDL
MODEL 2
REMARK VINA RESULT:      -7.0      9.702     14.183
REMARK  Name = ZINC000096181382 ZINC96181382 PubChem-97457252
REMARK  4 active torsions:
REMARK  status: ('A' for Active; 'I' for Inactive)
REMARK    1  A    between atoms: C_5  and  C_8
REMARK    2  A    between atoms: C_9  and  C_13
REMARK    3  A    between atoms: C_14  and  C_15
REMARK    4  A    between atoms: C_14  and  N_24
REMARK                            x       y       z     vdW  Elec       q    Type
REMARK                         _______ _______ _______ _____ _____    ______ ____
ROOT
ATOM      1  C   UNL     1     -43.931 -16.663 -25.762  0.00  0.00    +0.000 C 
ATOM      2  C   UNL     1     -44.547 -18.013 -26.175  0.00  0.00    +0.000 C 
ATOM      3  C   UNL     1     -43.440 -18.854 -26.822  0.00  0.00    +0.000 C 
ATOM      4  C   UNL     1     -42.274 -17.949 -26.803  0.00  0.00    +0.000 C 
ATOM      5  C   UNL     1     -41.548 -15.716 -25.849  0.00  0.00    +0.000 C 
ATOM      6  O   UNL     1     -41.136 -18.266 -27.241  0.00  0.00    +0.000 OA
ATOM      7  N   UNL     1     -42.557 -16.693 -26.226  0.00  0.00    +0.000 N 
ENDROOT
BRANCH   1  12
ATOM      8  C   UNL     1     -46.892 -12.257 -28.063  0.00  0.00    +0.000 C 
ATOM      9  C   UNL     1     -46.127 -13.389 -27.479  0.00  0.00    +0.000 A 
ATOM     10  C   UNL     1     -46.257 -13.693 -26.121  0.00  0.00    +0.000 A 
ATOM     11  C   UNL     1     -45.538 -14.759 -25.570  0.00  0.00    +0.000 A 
ATOM     12  C   UNL     1     -44.684 -15.522 -26.375  0.00  0.00    +0.000 A 
ATOM     13  C   UNL     1     -44.557 -15.215 -27.738  0.00  0.00    +0.000 A 
ATOM     14  C   UNL     1     -45.277 -14.150 -28.288  0.00  0.00    +0.000 A 
ENDBRANCH   1  12
BRANCH   2  15
ATOM     15  C   UNL     1     -45.117 -18.713 -24.987  0.00  0.00    +0.000 C 
ATOM     16  O   UNL     1     -46.012 -19.585 -25.154  0.00  0.00    +0.000 OA
ATOM     17  N   UNL     1     -44.654 -18.395 -23.673  0.00  0.00    +0.000 NA
BRANCH  17  18
ATOM     18  C   UNL     1     -45.185 -19.048 -22.488  0.00  0.00    +0.000 C 
BRANCH  18  19
ATOM     19  C   UNL     1     -45.590 -18.022 -21.490  0.00  0.00    +0.000 A 
ATOM     20  C   UNL     1     -45.427 -16.662 -21.778  0.00  0.00    +0.000 A 
ATOM     21  C   UNL     1     -45.786 -15.699 -20.830  0.00  0.00    +0.000 A 
ATOM     22  C   UNL     1     -46.302 -16.093 -19.591  0.00  0.00    +0.000 A 
ATOM     23  C   UNL     1     -46.457 -17.452 -19.300  0.00  0.00    +0.000 A 
ATOM     24  C   UNL     1     -46.100 -18.416 -20.248  0.00  0.00    +0.000 A 
ENDBRANCH  18  19
ENDBRANCH  17  18
ENDBRANCH   2  15
TORSDOF 4
ENDMDL
MODEL 3
REMARK VINA RESULT:      -6.9      3.539      7.780
REMARK  Name = ZINC000096181382 ZINC96181382 PubChem-97457252
REMARK  4 active torsions:
REMARK  status: ('A' for Active; 'I' for Inactive)
REMARK    1  A    between atoms: C_5  and  C_8
REMARK    2  A    between atoms: C_9  and  C_13
REMARK    3  A    between atoms: C_14  and  C_15
REMARK    4  A    between atoms: C_14  and  N_24
REMARK                            x       y       z     vdW  Elec       q    Type
REMARK                         _______ _______ _______ _____ _____    ______ ____
ROOT
ATOM      1  C   UNL     1     -44.780  -4.162 -32.226  0.00  0.00    +0.000 C 
ATOM      2  C   UNL     1     -46.115  -3.637 -31.664  0.00  0.00    +0.000 C 
ATOM      3  C   UNL     1     -47.225  -4.047 -32.640  0.00  0.00    +0.000 C 
ATOM      4  C   UNL     1     -46.489  -4.726 -33.724  0.00  0.00    +0.000 C 
ATOM      5  C   UNL     1     -44.170  -5.589 -34.269  0.00  0.00    +0.000 C 
ATOM      6  O   UNL     1     -47.044  -5.232 -34.736  0.00  0.00    +0.000 OA
ATOM      7  N   UNL     1     -45.096  -4.769 -33.505  0.00  0.00    +0.000 N 
ENDROOT
BRANCH   1  12
ATOM      8  C   UNL     1     -40.908   0.097 -32.804  0.00  0.00    +0.000 C 
ATOM      9  C   UNL     1     -41.908  -0.992 -32.659  0.00  0.00    +0.000 A 
ATOM     10  C   UNL     1     -41.485  -2.300 -32.404  0.00  0.00    +0.000 A 
ATOM     11  C   UNL     1     -42.426  -3.325 -32.266  0.00  0.00    +0.000 A 
ATOM     12  C   UNL     1     -43.792  -3.047 -32.385  0.00  0.00    +0.000 A 
ATOM     13  C   UNL     1     -44.213  -1.732 -32.639  0.00  0.00    +0.000 A 
ATOM     14  C   UNL     1     -43.272  -0.708 -32.775  0.00  0.00    +0.000 A 
ENDBRANCH   1  12
BRANCH   2  15
ATOM     15  C   UNL     1     -46.370  -4.201 -30.306  0.00  0.00    +0.000 C 
ATOM     16  O   UNL     1     -46.967  -3.498 -29.447  0.00  0.00    +0.000 OA
ATOM     17  N   UNL     1     -45.939  -5.526 -29.985  0.00  0.00    +0.000 NA
BRANCH  17  18
ATOM     18  C   UNL     1     -46.161  -6.113 -28.674  0.00  0.00    +0.000 C 
BRANCH  18  19
ATOM     19  C   UNL     1     -44.854  -6.383 -28.018  0.00  0.00    +0.000 A 
ATOM     20  C   UNL     1     -43.660  -6.131 -28.704  0.00  0.00    +0.000 A 
ATOM     21  C   UNL     1     -42.432  -6.408 -28.097  0.00  0.00    +0.000 A 
ATOM     22  C   UNL     1     -42.394  -6.942 -26.804  0.00  0.00    +0.000 A 
ATOM     23  C   UNL     1     -43.587  -7.201 -26.121  0.00  0.00    +0.000 A 
ATOM     24  C   UNL     1     -44.816  -6.924 -26.728  0.00  0.00    +0.000 A 
ENDBRANCH  18  19
ENDBRANCH  17  18
ENDBRANCH   2  15
TORSDOF 4
ENDMDL
