MODEL 1
REMARK VINA RESULT:      -6.5      0.000      0.000
REMARK  Name = ZINC000009380298 ZINC09380298 MolPort-002-580-065 PubChem-1960546
REMARK  4 active torsions:
REMARK  status: ('A' for Active; 'I' for Inactive)
REMARK    1  A    between atoms: N_1  and  C_29
REMARK    2  A    between atoms: C_8  and  C_12
REMARK    3  A    between atoms: C_25  and  O_32
REMARK    4  A    between atoms: C_28  and  O_33
REMARK                            x       y       z     vdW  Elec       q    Type
REMARK                         _______ _______ _______ _____ _____    ______ ____
ROOT
ATOM      1  N   UNL     1     -45.794  -6.378 -31.016  0.00  0.00    +0.000 N 
ATOM      2  C   UNL     1     -46.734  -7.257 -31.675  0.00  0.00    +0.000 C 
ATOM      3  S   UNL     1     -47.536  -8.433 -30.860  0.00  0.00    +0.000 S 
ATOM      4  N   UNL     1     -46.937  -7.155 -33.085  0.00  0.00    +0.000 N 
ATOM      5  C   UNL     1     -46.148  -6.285 -33.894  0.00  0.00    +0.000 C 
ATOM      6  O   UNL     1     -46.356  -6.239 -35.137  0.00  0.00    +0.000 OA
ATOM      7  C   UNL     1     -45.082  -5.478 -33.275  0.00  0.00    +0.000 C 
ATOM      8  C   UNL     1     -44.207  -4.844 -34.076  0.00  0.00    +0.000 C 
ATOM      9  C   UNL     1     -45.068  -5.406 -31.793  0.00  0.00    +0.000 C 
ATOM     10  O   UNL     1     -44.493  -4.446 -31.209  0.00  0.00    +0.000 OA
ATOM     11  H   UNL     1     -47.640  -7.700 -33.510  0.00  0.00    +0.000 HD
ENDROOT
BRANCH   8  12
ATOM     12  C   UNL     1     -42.976  -4.135 -33.683  0.00  0.00    +0.000 A 
ATOM     13  C   UNL     1     -41.738  -4.791 -33.630  0.00  0.00    +0.000 A 
ATOM     14  C   UNL     1     -40.575  -4.087 -33.310  0.00  0.00    +0.000 A 
ATOM     15  C   UNL     1     -40.641  -2.699 -33.088  0.00  0.00    +0.000 A 
ATOM     16  N   UNL     1     -39.450  -1.970 -32.742  0.00  0.00    +0.000 N 
ATOM     17  C   UNL     1     -39.549  -0.597 -32.262  0.00  0.00    +0.000 C 
ATOM     18  C   UNL     1     -40.608   0.151 -33.066  0.00  0.00    +0.000 C 
ATOM     19  C   UNL     1     -41.966  -0.547 -32.942  0.00  0.00    +0.000 C 
ATOM     20  C   UNL     1     -41.874  -2.029 -33.184  0.00  0.00    +0.000 A 
ATOM     21  C   UNL     1     -43.033  -2.751 -33.482  0.00  0.00    +0.000 A 
ATOM     22  C   UNL     1     -38.139  -2.605 -32.845  0.00  0.00    +0.000 C 
ATOM     23  C   UNL     1     -38.235  -4.066 -32.411  0.00  0.00    +0.000 C 
ATOM     24  C   UNL     1     -39.255  -4.802 -33.282  0.00  0.00    +0.000 C 
ENDBRANCH   8  12
BRANCH   1  29
ATOM     25  C   UNL     1     -46.249  -5.637 -27.368  0.00  0.00    +0.000 A 
ATOM     26  C   UNL     1     -45.235  -6.416 -26.808  0.00  0.00    +0.000 A 
ATOM     27  C   UNL     1     -44.407  -7.189 -27.626  0.00  0.00    +0.000 A 
ATOM     28  C   UNL     1     -44.584  -7.194 -29.019  0.00  0.00    +0.000 A 
ATOM     29  C   UNL     1     -45.608  -6.413 -29.588  0.00  0.00    +0.000 A 
ATOM     30  C   UNL     1     -46.429  -5.636 -28.759  0.00  0.00    +0.000 A 
BRANCH  25  32
ATOM     31  C   UNL     1     -47.093  -5.057 -25.116  0.00  0.00    +0.000 C 
ATOM     32  O   UNL     1     -47.062  -4.874 -26.524  0.00  0.00    +0.000 OA
ENDBRANCH  25  32
BRANCH  28  33
ATOM     33  O   UNL     1     -43.764  -7.967 -29.849  0.00  0.00    +0.000 OA
ATOM     34  C   UNL     1     -43.835  -9.386 -29.898  0.00  0.00    +0.000 C 
ENDBRANCH  28  33
ENDBRANCH   1  29
TORSDOF 4
ENDMDL
MODEL 2
REMARK VINA RESULT:      -6.4      2.812      7.609
REMARK  Name = ZINC000009380298 ZINC09380298 MolPort-002-580-065 PubChem-1960546
REMARK  4 active torsions:
REMARK  status: ('A' for Active; 'I' for Inactive)
REMARK    1  A    between atoms: N_1  and  C_29
REMARK    2  A    between atoms: C_8  and  C_12
REMARK    3  A    between atoms: C_25  and  O_32
REMARK    4  A    between atoms: C_28  and  O_33
REMARK                            x       y       z     vdW  Elec       q    Type
REMARK                         _______ _______ _______ _____ _____    ______ ____
ROOT
ATOM      1  N   UNL     1     -45.605  -5.458 -32.029  0.00  0.00    +0.000 N 
ATOM      2  C   UNL     1     -46.359  -5.968 -33.153  0.00  0.00    +0.000 C 
ATOM      3  S   UNL     1     -46.893  -4.985 -34.352  0.00  0.00    +0.000 S 
ATOM      4  N   UNL     1     -46.713  -7.351 -33.206  0.00  0.00    +0.000 N 
ATOM      5  C   UNL     1     -46.446  -8.234 -32.119  0.00  0.00    +0.000 C 
ATOM      6  O   UNL     1     -46.788  -9.444 -32.208  0.00  0.00    +0.000 OA
ATOM      7  C   UNL     1     -45.806  -7.717 -30.897  0.00  0.00    +0.000 C 
ATOM      8  C   UNL     1     -45.769  -8.503 -29.806  0.00  0.00    +0.000 C 
ATOM      9  C   UNL     1     -45.218  -6.356 -30.970  0.00  0.00    +0.000 C 
ATOM     10  O   UNL     1     -44.315  -6.009 -30.159  0.00  0.00    +0.000 OA
ATOM     11  H   UNL     1     -47.152  -7.702 -34.015  0.00  0.00    +0.000 HD
ENDROOT
BRANCH   8  12
ATOM     12  C   UNL     1     -45.342  -8.135 -28.445  0.00  0.00    +0.000 A 
ATOM     13  C   UNL     1     -46.242  -7.590 -27.517  0.00  0.00    +0.000 A 
ATOM     14  C   UNL     1     -45.829  -7.303 -26.214  0.00  0.00    +0.000 A 
ATOM     15  C   UNL     1     -44.515  -7.608 -25.817  0.00  0.00    +0.000 A 
ATOM     16  N   UNL     1     -44.078  -7.299 -24.481  0.00  0.00    +0.000 N 
ATOM     17  C   UNL     1     -42.663  -7.371 -24.141  0.00  0.00    +0.000 C 
ATOM     18  C   UNL     1     -42.039  -8.594 -24.807  0.00  0.00    +0.000 C 
ATOM     19  C   UNL     1     -42.210  -8.522 -26.328  0.00  0.00    +0.000 C 
ATOM     20  C   UNL     1     -43.622  -8.196 -26.731  0.00  0.00    +0.000 A 
ATOM     21  C   UNL     1     -44.042  -8.457 -28.038  0.00  0.00    +0.000 A 
ATOM     22  C   UNL     1     -45.043  -6.888 -23.465  0.00  0.00    +0.000 C 
ATOM     23  C   UNL     1     -46.109  -5.994 -24.094  0.00  0.00    +0.000 C 
ATOM     24  C   UNL     1     -46.813  -6.742 -25.228  0.00  0.00    +0.000 C 
ENDBRANCH   8  12
BRANCH   1  29
ATOM     25  C   UNL     1     -43.572  -2.355 -32.579  0.00  0.00    +0.000 A 
ATOM     26  C   UNL     1     -44.297  -1.425 -31.832  0.00  0.00    +0.000 A 
ATOM     27  C   UNL     1     -45.454  -1.814 -31.154  0.00  0.00    +0.000 A 
ATOM     28  C   UNL     1     -45.905  -3.142 -31.215  0.00  0.00    +0.000 A 
ATOM     29  C   UNL     1     -45.180  -4.083 -31.971  0.00  0.00    +0.000 A 
ATOM     30  C   UNL     1     -44.016  -3.684 -32.643  0.00  0.00    +0.000 A 
BRANCH  25  32
ATOM     31  C   UNL     1     -41.912  -0.613 -33.151  0.00  0.00    +0.000 C 
ATOM     32  O   UNL     1     -42.418  -1.936 -33.247  0.00  0.00    +0.000 OA
ENDBRANCH  25  32
BRANCH  28  33
ATOM     33  O   UNL     1     -47.066  -3.544 -30.544  0.00  0.00    +0.000 OA
ATOM     34  C   UNL     1     -47.056  -4.023 -29.206  0.00  0.00    +0.000 C 
ENDBRANCH  28  33
ENDBRANCH   1  29
TORSDOF 4
ENDMDL
MODEL 3
REMARK VINA RESULT:      -6.4      1.695      2.708
REMARK  Name = ZINC000009380298 ZINC09380298 MolPort-002-580-065 PubChem-1960546
REMARK  4 active torsions:
REMARK  status: ('A' for Active; 'I' for Inactive)
REMARK    1  A    between atoms: N_1  and  C_29
REMARK    2  A    between atoms: C_8  and  C_12
REMARK    3  A    between atoms: C_25  and  O_32
REMARK    4  A    between atoms: C_28  and  O_33
REMARK                            x       y       z     vdW  Elec       q    Type
REMARK                         _______ _______ _______ _____ _____    ______ ____
ROOT
ATOM      1  N   UNL     1     -45.348  -5.619 -31.014  0.00  0.00    +0.000 N 
ATOM      2  C   UNL     1     -46.676  -5.922 -31.500  0.00  0.00    +0.000 C 
ATOM      3  S   UNL     1     -47.458  -7.299 -31.076  0.00  0.00    +0.000 S 
ATOM      4  N   UNL     1     -47.314  -5.041 -32.426  0.00  0.00    +0.000 N 
ATOM      5  C   UNL     1     -46.632  -3.920 -32.984  0.00  0.00    +0.000 C 
ATOM      6  O   UNL     1     -47.234  -3.178 -33.807  0.00  0.00    +0.000 OA
ATOM      7  C   UNL     1     -45.228  -3.662 -32.619  0.00  0.00    +0.000 C 
ATOM      8  C   UNL     1     -44.538  -2.745 -33.322  0.00  0.00    +0.000 C 
ATOM      9  C   UNL     1     -44.681  -4.426 -31.472  0.00  0.00    +0.000 C 
ATOM     10  O   UNL     1     -43.680  -3.990 -30.837  0.00  0.00    +0.000 OA
ATOM     11  H   UNL     1     -48.249  -5.213 -32.685  0.00  0.00    +0.000 HD
ENDROOT
BRANCH   8  12
ATOM     12  C   UNL     1     -43.096  -2.454 -33.248  0.00  0.00    +0.000 A 
ATOM     13  C   UNL     1     -42.614  -1.289 -32.631  0.00  0.00    +0.000 A 
ATOM     14  C   UNL     1     -41.241  -1.061 -32.521  0.00  0.00    +0.000 A 
ATOM     15  C   UNL     1     -40.335  -2.030 -32.989  0.00  0.00    +0.000 A 
ATOM     16  N   UNL     1     -38.919  -1.794 -32.894  0.00  0.00    +0.000 N 
ATOM     17  C   UNL     1     -37.985  -2.662 -33.600  0.00  0.00    +0.000 C 
ATOM     18  C   UNL     1     -38.453  -4.110 -33.494  0.00  0.00    +0.000 C 
ATOM     19  C   UNL     1     -39.859  -4.263 -34.081  0.00  0.00    +0.000 C 
ATOM     20  C   UNL     1     -40.813  -3.219 -33.568  0.00  0.00    +0.000 A 
ATOM     21  C   UNL     1     -42.190  -3.423 -33.692  0.00  0.00    +0.000 A 
ATOM     22  C   UNL     1     -38.408  -0.671 -32.111  0.00  0.00    +0.000 C 
ATOM     23  C   UNL     1     -39.325   0.538 -32.280  0.00  0.00    +0.000 C 
ATOM     24  C   UNL     1     -40.745   0.180 -31.836  0.00  0.00    +0.000 C 
ENDBRANCH   8  12
BRANCH   1  29
ATOM     25  C   UNL     1     -44.300  -7.029 -27.700  0.00  0.00    +0.000 A 
ATOM     26  C   UNL     1     -43.406  -8.023 -28.104  0.00  0.00    +0.000 A 
ATOM     27  C   UNL     1     -43.152  -8.234 -29.461  0.00  0.00    +0.000 A 
ATOM     28  C   UNL     1     -43.793  -7.453 -30.436  0.00  0.00    +0.000 A 
ATOM     29  C   UNL     1     -44.698  -6.453 -30.035  0.00  0.00    +0.000 A 
ATOM     30  C   UNL     1     -44.941  -6.245 -28.670  0.00  0.00    +0.000 A 
BRANCH  25  32
ATOM     31  C   UNL     1     -43.704  -7.404 -25.329  0.00  0.00    +0.000 C 
ATOM     32  O   UNL     1     -44.534  -6.842 -26.335  0.00  0.00    +0.000 OA
ENDBRANCH  25  32
BRANCH  28  33
ATOM     33  O   UNL     1     -43.550  -7.657 -31.800  0.00  0.00    +0.000 OA
ATOM     34  C   UNL     1     -44.115  -8.738 -32.529  0.00  0.00    +0.000 C 
ENDBRANCH  28  33
ENDBRANCH   1  29
TORSDOF 4
ENDMDL
