MODEL 1
REMARK VINA RESULT:      -6.2      0.000      0.000
REMARK  Name = ZINC000096181797 ZINC96181797 PubChem-97457627
REMARK  2 active torsions:
REMARK  status: ('A' for Active; 'I' for Inactive)
REMARK    1  A    between atoms: C_5  and  C_6
REMARK    2  A    between atoms: C_7  and  C_11
REMARK                            x       y       z     vdW  Elec       q    Type
REMARK                         _______ _______ _______ _____ _____    ______ ____
ROOT
ATOM      1  C   UNL     1     -45.495  -3.921 -30.844  0.00  0.00    +0.000 C 
ATOM      2  C   UNL     1     -44.484  -4.280 -31.952  0.00  0.00    +0.000 C 
ATOM      3  C   UNL     1     -46.561  -4.858 -33.250  0.00  0.00    +0.000 C 
ATOM      4  C   UNL     1     -47.388  -4.396 -32.094  0.00  0.00    +0.000 C 
ATOM      5  C   UNL     1     -44.316  -5.530 -34.134  0.00  0.00    +0.000 C 
ATOM      6  N   UNL     1     -45.135  -4.886 -33.117  0.00  0.00    +0.000 N 
ATOM      7  O   UNL     1     -47.123  -5.276 -34.296  0.00  0.00    +0.000 OA
ATOM      8  O   UNL     1     -46.714  -3.403 -31.352  0.00  0.00    +0.000 OA
ENDROOT
BRANCH   1  13
ATOM      9  C   UNL     1     -47.345  -6.824 -24.215  0.00  0.00    +0.000 C 
ATOM     10  C   UNL     1     -46.900  -6.558 -25.608  0.00  0.00    +0.000 A 
ATOM     11  C   UNL     1     -46.897  -5.321 -26.225  0.00  0.00    +0.000 A 
ATOM     12  C   UNL     1     -46.402  -5.645 -27.474  0.00  0.00    +0.000 A 
ATOM     13  C   UNL     1     -45.683  -5.008 -29.826  0.00  0.00    +0.000 C 
ATOM     14  N   UNL     1     -46.140  -6.962 -27.575  0.00  0.00    +0.000 NA
ATOM     15  N   UNL     1     -46.197  -4.696 -28.525  0.00  0.00    +0.000 NA
ATOM     16  O   UNL     1     -46.454  -7.479 -26.427  0.00  0.00    +0.000 OA
ATOM     17  O   UNL     1     -45.354  -6.188 -30.123  0.00  0.00    +0.000 OA
ENDBRANCH   1  13
BRANCH   2  18
ATOM     18  C   UNL     1     -43.695  -3.070 -32.354  0.00  0.00    +0.000 A 
ATOM     19  C   UNL     1     -42.298  -3.112 -32.281  0.00  0.00    +0.000 A 
ATOM     20  C   UNL     1     -41.540  -1.999 -32.657  0.00  0.00    +0.000 A 
ATOM     21  C   UNL     1     -42.178  -0.841 -33.111  0.00  0.00    +0.000 A 
ATOM     22  C   UNL     1     -43.572  -0.794 -33.188  0.00  0.00    +0.000 A 
ATOM     23  C   UNL     1     -44.330  -1.907 -32.812  0.00  0.00    +0.000 A 
ATOM     24  F   UNL     1     -41.442   0.237 -33.475  0.00  0.00    +0.000 F 
ENDBRANCH   2  18
TORSDOF 2
ENDMDL
MODEL 2
REMARK VINA RESULT:      -6.0     11.511     15.858
REMARK  Name = ZINC000096181797 ZINC96181797 PubChem-97457627
REMARK  2 active torsions:
REMARK  status: ('A' for Active; 'I' for Inactive)
REMARK    1  A    between atoms: C_5  and  C_6
REMARK    2  A    between atoms: C_7  and  C_11
REMARK                            x       y       z     vdW  Elec       q    Type
REMARK                         _______ _______ _______ _____ _____    ______ ____
ROOT
ATOM      1  C   UNL     1     -44.441 -16.424 -23.307  0.00  0.00    +0.000 C 
ATOM      2  C   UNL     1     -44.803 -17.923 -23.275  0.00  0.00    +0.000 C 
ATOM      3  C   UNL     1     -42.727 -18.151 -24.679  0.00  0.00    +0.000 C 
ATOM      4  C   UNL     1     -42.496 -16.680 -24.540  0.00  0.00    +0.000 C 
ATOM      5  C   UNL     1     -44.283 -20.099 -24.435  0.00  0.00    +0.000 C 
ATOM      6  N   UNL     1     -43.922 -18.721 -24.132  0.00  0.00    +0.000 N 
ATOM      7  O   UNL     1     -41.908 -18.856 -25.324  0.00  0.00    +0.000 OA
ATOM      8  O   UNL     1     -43.043 -16.192 -23.334  0.00  0.00    +0.000 OA
ENDROOT
BRANCH   1  13
ATOM      9  C   UNL     1     -46.815 -10.294 -26.854  0.00  0.00    +0.000 C 
ATOM     10  C   UNL     1     -46.531 -11.670 -26.369  0.00  0.00    +0.000 A 
ATOM     11  C   UNL     1     -45.696 -11.991 -25.315  0.00  0.00    +0.000 A 
ATOM     12  C   UNL     1     -45.798 -13.369 -25.302  0.00  0.00    +0.000 A 
ATOM     13  C   UNL     1     -45.200 -15.643 -24.340  0.00  0.00    +0.000 C 
ATOM     14  N   UNL     1     -46.623 -13.813 -26.268  0.00  0.00    +0.000 NA
ATOM     15  N   UNL     1     -45.109 -14.214 -24.375  0.00  0.00    +0.000 NA
ATOM     16  O   UNL     1     -47.046 -12.756 -26.892  0.00  0.00    +0.000 OA
ATOM     17  O   UNL     1     -45.939 -16.261 -25.153  0.00  0.00    +0.000 OA
ENDBRANCH   1  13
BRANCH   2  18
ATOM     18  C   UNL     1     -44.784 -18.438 -21.867  0.00  0.00    +0.000 A 
ATOM     19  C   UNL     1     -45.987 -18.531 -21.157  0.00  0.00    +0.000 A 
ATOM     20  C   UNL     1     -45.993 -19.015 -19.846  0.00  0.00    +0.000 A 
ATOM     21  C   UNL     1     -44.797 -19.411 -19.240  0.00  0.00    +0.000 A 
ATOM     22  C   UNL     1     -43.593 -19.323 -19.944  0.00  0.00    +0.000 A 
ATOM     23  C   UNL     1     -43.586 -18.838 -21.256  0.00  0.00    +0.000 A 
ATOM     24  F   UNL     1     -44.806 -19.880 -17.969  0.00  0.00    +0.000 F 
ENDBRANCH   2  18
TORSDOF 2
ENDMDL
MODEL 3
REMARK VINA RESULT:      -6.0      3.775      7.149
REMARK  Name = ZINC000096181797 ZINC96181797 PubChem-97457627
REMARK  2 active torsions:
REMARK  status: ('A' for Active; 'I' for Inactive)
REMARK    1  A    between atoms: C_5  and  C_6
REMARK    2  A    between atoms: C_7  and  C_11
REMARK                            x       y       z     vdW  Elec       q    Type
REMARK                         _______ _______ _______ _____ _____    ______ ____
ROOT
ATOM      1  C   UNL     1     -46.438  -5.157 -31.922  0.00  0.00    +0.000 C 
ATOM      2  C   UNL     1     -45.523  -5.990 -31.002  0.00  0.00    +0.000 C 
ATOM      3  C   UNL     1     -46.912  -4.955 -29.177  0.00  0.00    +0.000 C 
ATOM      4  C   UNL     1     -47.742  -4.278 -30.220  0.00  0.00    +0.000 C 
ATOM      5  C   UNL     1     -44.817  -6.197 -28.591  0.00  0.00    +0.000 C 
ATOM      6  N   UNL     1     -45.765  -5.710 -29.584  0.00  0.00    +0.000 N 
ATOM      7  O   UNL     1     -47.189  -4.803 -27.958  0.00  0.00    +0.000 OA
ATOM      8  O   UNL     1     -47.756  -5.022 -31.419  0.00  0.00    +0.000 OA
ENDROOT
BRANCH   1  13
ATOM      9  C   UNL     1     -41.049  -0.031 -32.620  0.00  0.00    +0.000 C 
ATOM     10  C   UNL     1     -42.301  -0.832 -32.648  0.00  0.00    +0.000 A 
ATOM     11  C   UNL     1     -42.458  -2.090 -32.101  0.00  0.00    +0.000 A 
ATOM     12  C   UNL     1     -43.780  -2.353 -32.408  0.00  0.00    +0.000 A 
ATOM     13  C   UNL     1     -45.827  -3.857 -32.360  0.00  0.00    +0.000 C 
ATOM     14  N   UNL     1     -44.344  -1.332 -33.080  0.00  0.00    +0.000 NA
ATOM     15  N   UNL     1     -44.459  -3.562 -32.055  0.00  0.00    +0.000 NA
ATOM     16  O   UNL     1     -43.418  -0.431 -33.206  0.00  0.00    +0.000 OA
ATOM     17  O   UNL     1     -46.545  -3.020 -32.972  0.00  0.00    +0.000 OA
ENDBRANCH   1  13
BRANCH   2  18
ATOM     18  C   UNL     1     -45.682  -7.453 -31.290  0.00  0.00    +0.000 A 
ATOM     19  C   UNL     1     -44.739  -8.095 -32.100  0.00  0.00    +0.000 A 
ATOM     20  C   UNL     1     -44.863  -9.461 -32.375  0.00  0.00    +0.000 A 
ATOM     21  C   UNL     1     -45.929 -10.189 -31.839  0.00  0.00    +0.000 A 
ATOM     22  C   UNL     1     -46.872  -9.553 -31.027  0.00  0.00    +0.000 A 
ATOM     23  C   UNL     1     -46.749  -8.187 -30.752  0.00  0.00    +0.000 A 
ATOM     24  F   UNL     1     -46.047 -11.511 -32.107  0.00  0.00    +0.000 F 
ENDBRANCH   2  18
TORSDOF 2
ENDMDL
