MODEL 1
REMARK VINA RESULT:      -6.7      0.000      0.000
REMARK  Name = ZINC000063474270 CSC027367595 MCULE-3459856010 MolPort-020-069-293
REMARK  4 active torsions:
REMARK  status: ('A' for Active; 'I' for Inactive)
REMARK    1  A    between atoms: C_1  and  C_24
REMARK    2  A    between atoms: C_9  and  C_10
REMARK    3  A    between atoms: C_24  and  S_25
REMARK    4  A    between atoms: S_25  and  C_29
REMARK                            x       y       z     vdW  Elec       q    Type
REMARK                         _______ _______ _______ _____ _____    ______ ____
ROOT
ATOM      1  C   UNL     1     -47.028  -5.253 -26.286  0.00  0.00    +0.000 A 
ATOM      2  C   UNL     1     -47.183  -4.149 -25.479  0.00  0.00    +0.000 A 
ATOM      3  C   UNL     1     -47.255  -3.062 -26.309  0.00  0.00    +0.000 A 
ATOM      4  C   UNL     1     -47.423  -1.770 -25.815  0.00  0.00    +0.000 A 
ATOM      5  C   UNL     1     -47.517  -1.614 -24.420  0.00  0.00    +0.000 A 
ATOM      6  C   UNL     1     -47.444  -2.735 -23.564  0.00  0.00    +0.000 A 
ATOM      7  C   UNL     1     -47.275  -4.028 -24.093  0.00  0.00    +0.000 A 
ATOM      8  O   UNL     1     -47.147  -3.429 -27.562  0.00  0.00    +0.000 OA
ATOM      9  C   UNL     1     -46.999  -4.743 -27.590  0.00  0.00    +0.000 A 
ENDROOT
BRANCH   9  10
ATOM     10  C   UNL     1     -46.851  -5.497 -28.849  0.00  0.00    +0.000 C 
ATOM     11  N   UNL     1     -45.691  -6.303 -29.115  0.00  0.00    +0.000 N 
ATOM     12  C   UNL     1     -45.796  -7.618 -29.708  0.00  0.00    +0.000 A 
ATOM     13  C   UNL     1     -44.663  -8.453 -29.739  0.00  0.00    +0.000 A 
ATOM     14  C   UNL     1     -44.752  -9.742 -30.273  0.00  0.00    +0.000 A 
ATOM     15  C   UNL     1     -45.965 -10.208 -30.785  0.00  0.00    +0.000 A 
ATOM     16  C   UNL     1     -47.095  -9.387 -30.759  0.00  0.00    +0.000 A 
ATOM     17  C   UNL     1     -47.011  -8.100 -30.219  0.00  0.00    +0.000 A 
ATOM     18  N   UNL     1     -43.425  -7.994 -29.199  0.00  0.00    +0.000 N 
ATOM     19  C   UNL     1     -43.288  -6.647 -28.749  0.00  0.00    +0.000 C 
ATOM     20  O   UNL     1     -42.221  -6.279 -28.193  0.00  0.00    +0.000 OA
ATOM     21  C   UNL     1     -44.380  -5.653 -28.999  0.00  0.00    +0.000 C 
ATOM     22  O   UNL     1     -47.756  -5.396 -29.720  0.00  0.00    +0.000 OA
ATOM     23  H   UNL     1     -42.660  -8.611 -29.137  0.00  0.00    +0.000 HD
ENDBRANCH   9  10
BRANCH   1  24
ATOM     24  C   UNL     1     -46.942  -6.681 -25.848  0.00  0.00    +0.000 C 
BRANCH  24  25
ATOM     25  S   UNL     1     -45.220  -7.160 -25.512  0.00  0.00    +0.000 S 
BRANCH  25  29
ATOM     26  C   UNL     1     -46.841 -12.131 -27.541  0.00  0.00    +0.000 C 
ATOM     27  C   UNL     1     -46.147 -10.919 -27.034  0.00  0.00    +0.000 A 
ATOM     28  S   UNL     1     -46.914  -9.489 -26.589  0.00  0.00    +0.000 S 
ATOM     29  C   UNL     1     -45.430  -8.798 -26.194  0.00  0.00    +0.000 A 
ATOM     30  N   UNL     1     -44.409  -9.658 -26.402  0.00  0.00    +0.000 NA
ATOM     31  N   UNL     1     -44.809 -10.838 -26.873  0.00  0.00    +0.000 NA
ENDBRANCH  25  29
ENDBRANCH  24  25
ENDBRANCH   1  24
TORSDOF 4
ENDMDL
MODEL 2
REMARK VINA RESULT:      -6.4      4.389      6.147
REMARK  Name = ZINC000063474270 CSC027367595 MCULE-3459856010 MolPort-020-069-293
REMARK  4 active torsions:
REMARK  status: ('A' for Active; 'I' for Inactive)
REMARK    1  A    between atoms: C_1  and  C_24
REMARK    2  A    between atoms: C_9  and  C_10
REMARK    3  A    between atoms: C_24  and  S_25
REMARK    4  A    between atoms: S_25  and  C_29
REMARK                            x       y       z     vdW  Elec       q    Type
REMARK                         _______ _______ _______ _____ _____    ______ ____
ROOT
ATOM      1  C   UNL     1     -43.680  -3.838 -31.776  0.00  0.00    +0.000 A 
ATOM      2  C   UNL     1     -42.999  -2.692 -32.121  0.00  0.00    +0.000 A 
ATOM      3  C   UNL     1     -43.919  -1.678 -32.137  0.00  0.00    +0.000 A 
ATOM      4  C   UNL     1     -43.563  -0.367 -32.442  0.00  0.00    +0.000 A 
ATOM      5  C   UNL     1     -42.211  -0.112 -32.739  0.00  0.00    +0.000 A 
ATOM      6  C   UNL     1     -41.262  -1.158 -32.722  0.00  0.00    +0.000 A 
ATOM      7  C   UNL     1     -41.653  -2.473 -32.409  0.00  0.00    +0.000 A 
ATOM      8  O   UNL     1     -45.111  -2.130 -31.833  0.00  0.00    +0.000 OA
ATOM      9  C   UNL     1     -45.010  -3.431 -31.617  0.00  0.00    +0.000 A 
ENDROOT
BRANCH   9  10
ATOM     10  C   UNL     1     -46.169  -4.265 -31.246  0.00  0.00    +0.000 C 
ATOM     11  N   UNL     1     -46.522  -5.442 -31.993  0.00  0.00    +0.000 N 
ATOM     12  C   UNL     1     -46.916  -6.670 -31.338  0.00  0.00    +0.000 A 
ATOM     13  C   UNL     1     -47.031  -7.850 -32.096  0.00  0.00    +0.000 A 
ATOM     14  C   UNL     1     -47.372  -9.056 -31.477  0.00  0.00    +0.000 A 
ATOM     15  C   UNL     1     -47.608  -9.096 -30.101  0.00  0.00    +0.000 A 
ATOM     16  C   UNL     1     -47.497  -7.930 -29.339  0.00  0.00    +0.000 A 
ATOM     17  C   UNL     1     -47.148  -6.725 -29.954  0.00  0.00    +0.000 A 
ATOM     18  N   UNL     1     -46.771  -7.823 -33.498  0.00  0.00    +0.000 N 
ATOM     19  C   UNL     1     -46.527  -6.586 -34.165  0.00  0.00    +0.000 C 
ATOM     20  O   UNL     1     -46.211  -6.582 -35.383  0.00  0.00    +0.000 OA
ATOM     21  C   UNL     1     -46.714  -5.288 -33.440  0.00  0.00    +0.000 C 
ATOM     22  O   UNL     1     -46.881  -3.906 -30.270  0.00  0.00    +0.000 OA
ATOM     23  H   UNL     1     -46.761  -8.665 -34.009  0.00  0.00    +0.000 HD
ENDBRANCH   9  10
BRANCH   1  24
ATOM     24  C   UNL     1     -43.100  -5.205 -31.588  0.00  0.00    +0.000 C 
BRANCH  24  25
ATOM     25  S   UNL     1     -42.817  -6.021 -33.188  0.00  0.00    +0.000 S 
BRANCH  25  29
ATOM     26  C   UNL     1     -44.109 -10.722 -30.415  0.00  0.00    +0.000 C 
ATOM     27  C   UNL     1     -43.850  -9.623 -31.381  0.00  0.00    +0.000 A 
ATOM     28  S   UNL     1     -43.333  -8.078 -30.961  0.00  0.00    +0.000 S 
ATOM     29  C   UNL     1     -43.329  -7.623 -32.582  0.00  0.00    +0.000 A 
ATOM     30  N   UNL     1     -43.707  -8.640 -33.387  0.00  0.00    +0.000 NA
ATOM     31  N   UNL     1     -44.000  -9.753 -32.716  0.00  0.00    +0.000 NA
ENDBRANCH  25  29
ENDBRANCH  24  25
ENDBRANCH   1  24
TORSDOF 4
ENDMDL
MODEL 3
REMARK VINA RESULT:      -6.3      3.247      5.326
REMARK  Name = ZINC000063474270 CSC027367595 MCULE-3459856010 MolPort-020-069-293
REMARK  4 active torsions:
REMARK  status: ('A' for Active; 'I' for Inactive)
REMARK    1  A    between atoms: C_1  and  C_24
REMARK    2  A    between atoms: C_9  and  C_10
REMARK    3  A    between atoms: C_24  and  S_25
REMARK    4  A    between atoms: S_25  and  C_29
REMARK                            x       y       z     vdW  Elec       q    Type
REMARK                         _______ _______ _______ _____ _____    ______ ____
ROOT
ATOM      1  C   UNL     1     -44.456  -4.180 -31.268  0.00  0.00    +0.000 A 
ATOM      2  C   UNL     1     -43.984  -3.095 -31.972  0.00  0.00    +0.000 A 
ATOM      3  C   UNL     1     -44.772  -2.030 -31.629  0.00  0.00    +0.000 A 
ATOM      4  C   UNL     1     -44.563  -0.759 -32.159  0.00  0.00    +0.000 A 
ATOM      5  C   UNL     1     -43.503  -0.601 -33.070  0.00  0.00    +0.000 A 
ATOM      6  C   UNL     1     -42.688  -1.699 -33.424  0.00  0.00    +0.000 A 
ATOM      7  C   UNL     1     -42.925  -2.972 -32.871  0.00  0.00    +0.000 A 
ATOM      8  O   UNL     1     -45.695  -2.394 -30.771  0.00  0.00    +0.000 OA
ATOM      9  C   UNL     1     -45.542  -3.687 -30.536  0.00  0.00    +0.000 A 
ENDROOT
BRANCH   9  10
ATOM     10  C   UNL     1     -46.414  -4.431 -29.608  0.00  0.00    +0.000 C 
ATOM     11  N   UNL     1     -46.752  -5.811 -29.831  0.00  0.00    +0.000 N 
ATOM     12  C   UNL     1     -46.759  -6.777 -28.755  0.00  0.00    +0.000 A 
ATOM     13  C   UNL     1     -46.872  -8.147 -29.058  0.00  0.00    +0.000 A 
ATOM     14  C   UNL     1     -46.842  -9.101 -28.036  0.00  0.00    +0.000 A 
ATOM     15  C   UNL     1     -46.705  -8.699 -26.706  0.00  0.00    +0.000 A 
ATOM     16  C   UNL     1     -46.592  -7.342 -26.394  0.00  0.00    +0.000 A 
ATOM     17  C   UNL     1     -46.614  -6.387 -27.414  0.00  0.00    +0.000 A 
ATOM     18  N   UNL     1     -46.991  -8.567 -30.416  0.00  0.00    +0.000 N 
ATOM     19  C   UNL     1     -47.131  -7.607 -31.461  0.00  0.00    +0.000 C 
ATOM     20  O   UNL     1     -47.145  -7.984 -32.661  0.00  0.00    +0.000 OA
ATOM     21  C   UNL     1     -47.334  -6.159 -31.133  0.00  0.00    +0.000 C 
ATOM     22  O   UNL     1     -46.899  -3.820 -28.617  0.00  0.00    +0.000 OA
ATOM     23  H   UNL     1     -46.977  -9.528 -30.633  0.00  0.00    +0.000 HD
ENDBRANCH   9  10
BRANCH   1  24
ATOM     24  C   UNL     1     -43.897  -5.568 -31.276  0.00  0.00    +0.000 C 
BRANCH  24  25
ATOM     25  S   UNL     1     -42.897  -5.878 -29.788  0.00  0.00    +0.000 S 
BRANCH  25  29
ATOM     26  C   UNL     1     -43.676 -11.348 -28.823  0.00  0.00    +0.000 C 
ATOM     27  C   UNL     1     -43.582  -9.956 -29.336  0.00  0.00    +0.000 A 
ATOM     28  S   UNL     1     -43.046  -8.637 -28.440  0.00  0.00    +0.000 S 
ATOM     29  C   UNL     1     -43.282  -7.623 -29.763  0.00  0.00    +0.000 A 
ATOM     30  N   UNL     1     -43.748  -8.302 -30.834  0.00  0.00    +0.000 NA
ATOM     31  N   UNL     1     -43.918  -9.601 -30.595  0.00  0.00    +0.000 NA
ENDBRANCH  25  29
ENDBRANCH  24  25
ENDBRANCH   1  24
TORSDOF 4
ENDMDL
