MODEL 1
REMARK VINA RESULT:      -6.7      0.000      0.000
REMARK  Name = ZINC000031809867
REMARK  2 active torsions:
REMARK  status: ('A' for Active; 'I' for Inactive)
REMARK    1  A    between atoms: C_7  and  C_24
REMARK    2  A    between atoms: C_28  and  O_29
REMARK                            x       y       z     vdW  Elec       q    Type
REMARK                         _______ _______ _______ _____ _____    ______ ____
ROOT
ATOM      1  C   UNL     1     -47.585  -4.278 -34.382  0.00  0.00    +0.000 C 
ATOM      2  C   UNL     1     -46.669  -5.388 -33.998  0.00  0.00    +0.000 A 
ATOM      3  N   UNL     1     -46.451  -6.469 -34.769  0.00  0.00    +0.000 NA
ATOM      4  N   UNL     1     -45.586  -7.244 -34.135  0.00  0.00    +0.000 N 
ATOM      5  C   UNL     1     -45.213  -6.660 -32.974  0.00  0.00    +0.000 A 
ATOM      6  C   UNL     1     -45.912  -5.461 -32.841  0.00  0.00    +0.000 A 
ATOM      7  C   UNL     1     -45.866  -4.389 -31.788  0.00  0.00    +0.000 C 
ATOM      8  S   UNL     1     -45.524  -4.987 -30.103  0.00  0.00    +0.000 S 
ATOM      9  C   UNL     1     -43.785  -5.311 -30.476  0.00  0.00    +0.000 C 
ATOM     10  C   UNL     1     -43.614  -6.716 -30.917  0.00  0.00    +0.000 C 
ATOM     11  O   UNL     1     -42.869  -7.469 -30.239  0.00  0.00    +0.000 OA
ATOM     12  N   UNL     1     -44.226  -7.237 -32.101  0.00  0.00    +0.000 N 
ATOM     13  H   UNL     1     -43.922  -8.136 -32.360  0.00  0.00    +0.000 HD
ATOM     14  C   UNL     1     -45.105  -8.477 -34.690  0.00  0.00    +0.000 A 
ATOM     15  N   UNL     1     -44.789  -8.553 -36.018  0.00  0.00    +0.000 NA
ATOM     16  C   UNL     1     -44.355  -9.725 -36.585  0.00  0.00    +0.000 A 
ATOM     17  N   UNL     1     -44.240 -10.859 -35.833  0.00  0.00    +0.000 NA
ATOM     18  C   UNL     1     -44.566 -10.789 -34.519  0.00  0.00    +0.000 A 
ATOM     19  N   UNL     1     -44.572 -11.800 -33.644  0.00  0.00    +0.000 N 
ATOM     20  C   UNL     1     -45.032 -11.204 -32.510  0.00  0.00    +0.000 A 
ATOM     21  N   UNL     1     -45.311  -9.880 -32.658  0.00  0.00    +0.000 NA
ATOM     22  C   UNL     1     -44.993  -9.648 -33.939  0.00  0.00    +0.000 A 
ATOM     23  H   UNL     1     -44.310 -12.739 -33.784  0.00  0.00    +0.000 HD
ENDROOT
BRANCH   7  24
ATOM     24  C   UNL     1     -45.076  -3.167 -32.171  0.00  0.00    +0.000 A 
ATOM     25  C   UNL     1     -44.162  -3.253 -33.227  0.00  0.00    +0.000 A 
ATOM     26  C   UNL     1     -43.422  -2.131 -33.611  0.00  0.00    +0.000 A 
ATOM     27  C   UNL     1     -43.596  -0.916 -32.944  0.00  0.00    +0.000 A 
ATOM     28  C   UNL     1     -44.511  -0.822 -31.891  0.00  0.00    +0.000 A 
ATOM     29  C   UNL     1     -45.250  -1.943 -31.506  0.00  0.00    +0.000 A 
BRANCH  28  30
ATOM     30  O   UNL     1     -44.684   0.386 -31.229  0.00  0.00    +0.000 OA
ATOM     31  H   UNL     1     -44.032   0.689 -30.630  0.00  0.00    +0.000 HD
ENDBRANCH  28  30
ENDBRANCH   7  24
TORSDOF 2
ENDMDL
MODEL 2
REMARK VINA RESULT:      -6.7     10.716     14.007
REMARK  Name = ZINC000031809867
REMARK  2 active torsions:
REMARK  status: ('A' for Active; 'I' for Inactive)
REMARK    1  A    between atoms: C_7  and  C_24
REMARK    2  A    between atoms: C_28  and  O_29
REMARK                            x       y       z     vdW  Elec       q    Type
REMARK                         _______ _______ _______ _____ _____    ______ ____
ROOT
ATOM      1  C   UNL     1     -43.296 -12.381 -24.526  0.00  0.00    +0.000 C 
ATOM      2  C   UNL     1     -44.049 -13.516 -23.924  0.00  0.00    +0.000 A 
ATOM      3  N   UNL     1     -44.657 -13.449 -22.726  0.00  0.00    +0.000 NA
ATOM      4  N   UNL     1     -45.232 -14.620 -22.504  0.00  0.00    +0.000 N 
ATOM      5  C   UNL     1     -45.032 -15.437 -23.563  0.00  0.00    +0.000 A 
ATOM      6  C   UNL     1     -44.249 -14.760 -24.498  0.00  0.00    +0.000 A 
ATOM      7  C   UNL     1     -43.761 -15.154 -25.864  0.00  0.00    +0.000 C 
ATOM      8  S   UNL     1     -43.405 -16.927 -26.067  0.00  0.00    +0.000 S 
ATOM      9  C   UNL     1     -45.159 -17.367 -26.085  0.00  0.00    +0.000 C 
ATOM     10  C   UNL     1     -45.612 -17.702 -24.713  0.00  0.00    +0.000 C 
ATOM     11  O   UNL     1     -46.057 -18.858 -24.497  0.00  0.00    +0.000 OA
ATOM     12  N   UNL     1     -45.600 -16.756 -23.640  0.00  0.00    +0.000 N 
ATOM     13  H   UNL     1     -46.055 -17.057 -22.821  0.00  0.00    +0.000 HD
ATOM     14  C   UNL     1     -45.999 -14.891 -21.321  0.00  0.00    +0.000 A 
ATOM     15  N   UNL     1     -46.851 -13.944 -20.826  0.00  0.00    +0.000 NA
ATOM     16  C   UNL     1     -47.576 -14.159 -19.681  0.00  0.00    +0.000 A 
ATOM     17  N   UNL     1     -47.452 -15.333 -18.993  0.00  0.00    +0.000 NA
ATOM     18  C   UNL     1     -46.597 -16.268 -19.475  0.00  0.00    +0.000 A 
ATOM     19  N   UNL     1     -46.302 -17.444 -18.911  0.00  0.00    +0.000 N 
ATOM     20  C   UNL     1     -45.360 -17.947 -19.756  0.00  0.00    +0.000 A 
ATOM     21  N   UNL     1     -45.066 -17.127 -20.802  0.00  0.00    +0.000 NA
ATOM     22  C   UNL     1     -45.875 -16.078 -20.600  0.00  0.00    +0.000 A 
ATOM     23  H   UNL     1     -46.672 -17.846 -18.092  0.00  0.00    +0.000 HD
ENDROOT
BRANCH   7  24
ATOM     24  C   UNL     1     -44.539 -14.555 -27.004  0.00  0.00    +0.000 A 
ATOM     25  C   UNL     1     -43.993 -14.592 -28.292  0.00  0.00    +0.000 A 
ATOM     26  C   UNL     1     -44.697 -14.052 -29.372  0.00  0.00    +0.000 A 
ATOM     27  C   UNL     1     -45.954 -13.476 -29.170  0.00  0.00    +0.000 A 
ATOM     28  C   UNL     1     -46.508 -13.439 -27.887  0.00  0.00    +0.000 A 
ATOM     29  C   UNL     1     -45.803 -13.978 -26.807  0.00  0.00    +0.000 A 
BRANCH  28  30
ATOM     30  O   UNL     1     -47.756 -12.868 -27.686  0.00  0.00    +0.000 OA
ATOM     31  H   UNL     1     -48.531 -13.384 -27.793  0.00  0.00    +0.000 HD
ENDBRANCH  28  30
ENDBRANCH   7  24
TORSDOF 2
ENDMDL
MODEL 3
REMARK VINA RESULT:      -6.5      3.056      4.022
REMARK  Name = ZINC000031809867
REMARK  2 active torsions:
REMARK  status: ('A' for Active; 'I' for Inactive)
REMARK    1  A    between atoms: C_7  and  C_24
REMARK    2  A    between atoms: C_28  and  O_29
REMARK                            x       y       z     vdW  Elec       q    Type
REMARK                         _______ _______ _______ _____ _____    ______ ____
ROOT
ATOM      1  C   UNL     1     -43.019  -5.803 -34.991  0.00  0.00    +0.000 C 
ATOM      2  C   UNL     1     -43.762  -6.045 -33.722  0.00  0.00    +0.000 A 
ATOM      3  N   UNL     1     -43.643  -7.172 -32.998  0.00  0.00    +0.000 NA
ATOM      4  N   UNL     1     -44.429  -7.052 -31.941  0.00  0.00    +0.000 N 
ATOM      5  C   UNL     1     -45.032  -5.842 -31.953  0.00  0.00    +0.000 A 
ATOM      6  C   UNL     1     -44.639  -5.167 -33.108  0.00  0.00    +0.000 A 
ATOM      7  C   UNL     1     -44.953  -3.787 -33.615  0.00  0.00    +0.000 C 
ATOM      8  S   UNL     1     -46.615  -3.177 -33.193  0.00  0.00    +0.000 S 
ATOM      9  C   UNL     1     -46.175  -2.918 -31.458  0.00  0.00    +0.000 C 
ATOM     10  C   UNL     1     -46.508  -4.125 -30.664  0.00  0.00    +0.000 C 
ATOM     11  O   UNL     1     -47.341  -4.012 -29.727  0.00  0.00    +0.000 OA
ATOM     12  N   UNL     1     -45.894  -5.396 -30.891  0.00  0.00    +0.000 N 
ATOM     13  H   UNL     1     -46.094  -6.078 -30.210  0.00  0.00    +0.000 HD
ATOM     14  C   UNL     1     -44.525  -8.068 -30.932  0.00  0.00    +0.000 A 
ATOM     15  N   UNL     1     -43.400  -8.716 -30.504  0.00  0.00    +0.000 NA
ATOM     16  C   UNL     1     -43.461  -9.713 -29.563  0.00  0.00    +0.000 A 
ATOM     17  N   UNL     1     -44.662 -10.095 -29.035  0.00  0.00    +0.000 NA
ATOM     18  C   UNL     1     -45.779  -9.464 -29.468  0.00  0.00    +0.000 A 
ATOM     19  N   UNL     1     -47.039  -9.738 -29.113  0.00  0.00    +0.000 N 
ATOM     20  C   UNL     1     -47.756  -8.869 -29.877  0.00  0.00    +0.000 A 
ATOM     21  N   UNL     1     -46.991  -8.085 -30.684  0.00  0.00    +0.000 NA
ATOM     22  C   UNL     1     -45.744  -8.480 -30.391  0.00  0.00    +0.000 A 
ATOM     23  H   UNL     1     -47.366 -10.401 -28.462  0.00  0.00    +0.000 HD
ENDROOT
BRANCH   7  24
ATOM     24  C   UNL     1     -43.861  -2.775 -33.398  0.00  0.00    +0.000 A 
ATOM     25  C   UNL     1     -44.162  -1.414 -33.520  0.00  0.00    +0.000 A 
ATOM     26  C   UNL     1     -43.170  -0.451 -33.314  0.00  0.00    +0.000 A 
ATOM     27  C   UNL     1     -41.871  -0.845 -32.981  0.00  0.00    +0.000 A 
ATOM     28  C   UNL     1     -41.564  -2.202 -32.854  0.00  0.00    +0.000 A 
ATOM     29  C   UNL     1     -42.555  -3.165 -33.060  0.00  0.00    +0.000 A 
BRANCH  28  30
ATOM     30  O   UNL     1     -40.274  -2.594 -32.522  0.00  0.00    +0.000 OA
ATOM     31  H   UNL     1     -39.815  -3.203 -33.066  0.00  0.00    +0.000 HD
ENDBRANCH  28  30
ENDBRANCH   7  24
TORSDOF 2
ENDMDL
