MODEL 1
REMARK VINA RESULT:      -8.0      0.000      0.000
REMARK  Name = ZINC000023126404 MCULE-3872663354
REMARK  6 active torsions:
REMARK  status: ('A' for Active; 'I' for Inactive)
REMARK    1  A    between atoms: C_4  and  S_25
REMARK    2  A    between atoms: C_10  and  C_16
REMARK    3  A    between atoms: N_18  and  C_20
REMARK    4  A    between atoms: S_25  and  C_26
REMARK    5  A    between atoms: C_26  and  C_27
REMARK    6  A    between atoms: N_29  and  C_31
REMARK                            x       y       z     vdW  Elec       q    Type
REMARK                         _______ _______ _______ _____ _____    ______ ____
ROOT
ATOM      1  C   UNL     1     -47.197  -3.747 -25.887  0.00  0.00    +0.000 A 
ATOM      2  N   UNL     1     -47.323  -2.768 -26.803  0.00  0.00    +0.000 NA
ATOM      3  N   UNL     1     -47.239  -3.361 -27.989  0.00  0.00    +0.000 NA
ATOM      4  C   UNL     1     -47.067  -4.683 -27.771  0.00  0.00    +0.000 A 
ATOM      5  N   UNL     1     -47.038  -4.952 -26.448  0.00  0.00    +0.000 N 
ATOM      6  C   UNL     1     -46.897  -6.088 -25.715  0.00  0.00    +0.000 A 
ATOM      7  C   UNL     1     -46.901  -5.968 -24.307  0.00  0.00    +0.000 A 
ATOM      8  C   UNL     1     -46.755  -7.115 -23.516  0.00  0.00    +0.000 A 
ATOM      9  C   UNL     1     -46.619  -8.370 -24.116  0.00  0.00    +0.000 A 
ATOM     10  C   UNL     1     -46.630  -8.497 -25.512  0.00  0.00    +0.000 A 
ATOM     11  C   UNL     1     -46.767  -7.351 -26.306  0.00  0.00    +0.000 A 
ATOM     12  C   UNL     1     -47.059  -4.684 -23.732  0.00  0.00    +0.000 A 
ATOM     13  O   UNL     1     -47.063  -4.555 -22.475  0.00  0.00    +0.000 OA
ATOM     14  N   UNL     1     -47.211  -3.582 -24.536  0.00  0.00    +0.000 N 
ATOM     15  C   UNL     1     -47.378  -2.252 -23.961  0.00  0.00    +0.000 C 
ENDROOT
BRANCH  10  16
ATOM     16  C   UNL     1     -46.513  -9.824 -26.141  0.00  0.00    +0.000 C 
ATOM     17  O   UNL     1     -46.638 -10.867 -25.442  0.00  0.00    +0.000 OA
ATOM     18  N   UNL     1     -46.276  -9.931 -27.549  0.00  0.00    +0.000 N 
ATOM     19  H   UNL     1     -46.211  -9.105 -28.082  0.00  0.00    +0.000 HD
BRANCH  18  20
ATOM     20  C   UNL     1     -46.128 -11.212 -28.221  0.00  0.00    +0.000 C 
ATOM     21  C   UNL     1     -44.653 -11.528 -28.421  0.00  0.00    +0.000 C 
ATOM     22  C   UNL     1     -44.406 -11.502 -29.915  0.00  0.00    +0.000 C 
ATOM     23  C   UNL     1     -45.752 -11.753 -30.548  0.00  0.00    +0.000 C 
ATOM     24  C   UNL     1     -46.753 -11.136 -29.600  0.00  0.00    +0.000 C 
ENDBRANCH  18  20
ENDBRANCH  10  16
BRANCH   4  25
ATOM     25  S   UNL     1     -46.838  -5.872 -29.092  0.00  0.00    +0.000 S 
BRANCH  25  26
ATOM     26  C   UNL     1     -47.684  -4.813 -30.308  0.00  0.00    +0.000 C 
BRANCH  26  27
ATOM     27  C   UNL     1     -46.731  -4.122 -31.234  0.00  0.00    +0.000 C 
ATOM     28  O   UNL     1     -46.743  -4.439 -32.452  0.00  0.00    +0.000 OA
ATOM     29  N   UNL     1     -45.840  -3.107 -30.748  0.00  0.00    +0.000 N 
ATOM     30  H   UNL     1     -45.933  -2.854 -29.802  0.00  0.00    +0.000 HD
BRANCH  29  31
ATOM     31  C   UNL     1     -44.828  -2.422 -31.498  0.00  0.00    +0.000 A 
ATOM     32  C   UNL     1     -44.970  -1.047 -31.720  0.00  0.00    +0.000 A 
ATOM     33  C   UNL     1     -43.992  -0.340 -32.425  0.00  0.00    +0.000 A 
ATOM     34  C   UNL     1     -42.862  -1.003 -32.909  0.00  0.00    +0.000 A 
ATOM     35  C   UNL     1     -42.711  -2.376 -32.690  0.00  0.00    +0.000 A 
ATOM     36  C   UNL     1     -43.690  -3.082 -31.986  0.00  0.00    +0.000 A 
ATOM     37  F   UNL     1     -41.912  -0.318 -33.589  0.00  0.00    +0.000 F 
ENDBRANCH  29  31
ENDBRANCH  26  27
ENDBRANCH  25  26
ENDBRANCH   4  25
TORSDOF 6
ENDMDL
MODEL 2
REMARK VINA RESULT:      -7.6      3.537      7.169
REMARK  Name = ZINC000023126404 MCULE-3872663354
REMARK  6 active torsions:
REMARK  status: ('A' for Active; 'I' for Inactive)
REMARK    1  A    between atoms: C_4  and  S_25
REMARK    2  A    between atoms: C_10  and  C_16
REMARK    3  A    between atoms: N_18  and  C_20
REMARK    4  A    between atoms: S_25  and  C_26
REMARK    5  A    between atoms: C_26  and  C_27
REMARK    6  A    between atoms: N_29  and  C_31
REMARK                            x       y       z     vdW  Elec       q    Type
REMARK                         _______ _______ _______ _____ _____    ______ ____
ROOT
ATOM      1  C   UNL     1     -45.971 -10.669 -31.112  0.00  0.00    +0.000 A 
ATOM      2  N   UNL     1     -45.812 -11.510 -32.151  0.00  0.00    +0.000 NA
ATOM      3  N   UNL     1     -45.920 -10.764 -33.246  0.00  0.00    +0.000 NA
ATOM      4  C   UNL     1     -46.140  -9.492 -32.852  0.00  0.00    +0.000 A 
ATOM      5  N   UNL     1     -46.174  -9.405 -31.505  0.00  0.00    +0.000 N 
ATOM      6  C   UNL     1     -46.354  -8.385 -30.625  0.00  0.00    +0.000 A 
ATOM      7  C   UNL     1     -46.343  -8.695 -29.245  0.00  0.00    +0.000 A 
ATOM      8  C   UNL     1     -46.527  -7.672 -28.307  0.00  0.00    +0.000 A 
ATOM      9  C   UNL     1     -46.710  -6.353 -28.732  0.00  0.00    +0.000 A 
ATOM     10  C   UNL     1     -46.707  -6.037 -30.098  0.00  0.00    +0.000 A 
ATOM     11  C   UNL     1     -46.531  -7.060 -31.039  0.00  0.00    +0.000 A 
ATOM     12  C   UNL     1     -46.137 -10.039 -28.849  0.00  0.00    +0.000 A 
ATOM     13  O   UNL     1     -46.125 -10.337 -27.622  0.00  0.00    +0.000 OA
ATOM     14  N   UNL     1     -45.948 -11.015 -29.796  0.00  0.00    +0.000 N 
ATOM     15  C   UNL     1     -45.731 -12.403 -29.406  0.00  0.00    +0.000 C 
ENDROOT
BRANCH  10  16
ATOM     16  C   UNL     1     -46.873  -4.643 -30.541  0.00  0.00    +0.000 C 
ATOM     17  O   UNL     1     -47.755  -3.913 -30.012  0.00  0.00    +0.000 OA
ATOM     18  N   UNL     1     -46.021  -4.109 -31.561  0.00  0.00    +0.000 N 
ATOM     19  H   UNL     1     -45.319  -4.686 -31.941  0.00  0.00    +0.000 HD
BRANCH  18  20
ATOM     20  C   UNL     1     -46.154  -2.748 -32.056  0.00  0.00    +0.000 C 
ATOM     21  C   UNL     1     -45.786  -2.691 -33.530  0.00  0.00    +0.000 C 
ATOM     22  C   UNL     1     -44.522  -1.863 -33.628  0.00  0.00    +0.000 C 
ATOM     23  C   UNL     1     -44.506  -1.008 -32.386  0.00  0.00    +0.000 C 
ATOM     24  C   UNL     1     -45.180  -1.846 -31.324  0.00  0.00    +0.000 C 
ENDBRANCH  18  20
ENDBRANCH  10  16
BRANCH   4  25
ATOM     25  S   UNL     1     -46.414  -8.143 -33.999  0.00  0.00    +0.000 S 
BRANCH  25  26
ATOM     26  C   UNL     1     -44.910  -8.533 -34.950  0.00  0.00    +0.000 C 
BRANCH  26  27
ATOM     27  C   UNL     1     -43.767  -7.623 -34.623  0.00  0.00    +0.000 C 
ATOM     28  O   UNL     1     -42.596  -8.073 -34.718  0.00  0.00    +0.000 OA
ATOM     29  N   UNL     1     -44.001  -6.262 -34.230  0.00  0.00    +0.000 N 
ATOM     30  H   UNL     1     -44.935  -5.952 -34.248  0.00  0.00    +0.000 HD
BRANCH  29  31
ATOM     31  C   UNL     1     -43.017  -5.306 -33.815  0.00  0.00    +0.000 A 
ATOM     32  C   UNL     1     -42.264  -4.647 -34.794  0.00  0.00    +0.000 A 
ATOM     33  C   UNL     1     -41.312  -3.691 -34.431  0.00  0.00    +0.000 A 
ATOM     34  C   UNL     1     -41.109  -3.384 -33.082  0.00  0.00    +0.000 A 
ATOM     35  C   UNL     1     -41.858  -4.036 -32.098  0.00  0.00    +0.000 A 
ATOM     36  C   UNL     1     -42.808  -4.993 -32.463  0.00  0.00    +0.000 A 
ATOM     37  F   UNL     1     -40.190  -2.454 -32.729  0.00  0.00    +0.000 F 
ENDBRANCH  29  31
ENDBRANCH  26  27
ENDBRANCH  25  26
ENDBRANCH   4  25
TORSDOF 6
ENDMDL
MODEL 3
REMARK VINA RESULT:      -7.3      5.315      8.759
REMARK  Name = ZINC000023126404 MCULE-3872663354
REMARK  6 active torsions:
REMARK  status: ('A' for Active; 'I' for Inactive)
REMARK    1  A    between atoms: C_4  and  S_25
REMARK    2  A    between atoms: C_10  and  C_16
REMARK    3  A    between atoms: N_18  and  C_20
REMARK    4  A    between atoms: S_25  and  C_26
REMARK    5  A    between atoms: C_26  and  C_27
REMARK    6  A    between atoms: N_29  and  C_31
REMARK                            x       y       z     vdW  Elec       q    Type
REMARK                         _______ _______ _______ _____ _____    ______ ____
ROOT
ATOM      1  C   UNL     1     -39.452  -2.265 -33.005  0.00  0.00    +0.000 A 
ATOM      2  N   UNL     1     -38.279  -2.845 -33.323  0.00  0.00    +0.000 NA
ATOM      3  N   UNL     1     -38.583  -4.040 -33.821  0.00  0.00    +0.000 NA
ATOM      4  C   UNL     1     -39.928  -4.159 -33.798  0.00  0.00    +0.000 A 
ATOM      5  N   UNL     1     -40.500  -3.049 -33.287  0.00  0.00    +0.000 N 
ATOM      6  C   UNL     1     -41.784  -2.665 -33.055  0.00  0.00    +0.000 A 
ATOM      7  C   UNL     1     -41.996  -1.394 -32.474  0.00  0.00    +0.000 A 
ATOM      8  C   UNL     1     -43.305  -0.963 -32.217  0.00  0.00    +0.000 A 
ATOM      9  C   UNL     1     -44.391  -1.780 -32.544  0.00  0.00    +0.000 A 
ATOM     10  C   UNL     1     -44.186  -3.035 -33.134  0.00  0.00    +0.000 A 
ATOM     11  C   UNL     1     -42.879  -3.472 -33.384  0.00  0.00    +0.000 A 
ATOM     12  C   UNL     1     -40.875  -0.584 -32.174  0.00  0.00    +0.000 A 
ATOM     13  O   UNL     1     -41.043   0.554 -31.653  0.00  0.00    +0.000 OA
ATOM     14  N   UNL     1     -39.607  -1.033 -32.449  0.00  0.00    +0.000 N 
ATOM     15  C   UNL     1     -38.440  -0.211 -32.149  0.00  0.00    +0.000 C 
ENDROOT
BRANCH  10  16
ATOM     16  C   UNL     1     -45.334  -3.882 -33.501  0.00  0.00    +0.000 C 
ATOM     17  O   UNL     1     -46.477  -3.369 -33.646  0.00  0.00    +0.000 OA
ATOM     18  N   UNL     1     -45.149  -5.286 -33.711  0.00  0.00    +0.000 N 
ATOM     19  H   UNL     1     -44.243  -5.664 -33.622  0.00  0.00    +0.000 HD
BRANCH  18  20
ATOM     20  C   UNL     1     -46.248  -6.176 -34.051  0.00  0.00    +0.000 C 
ATOM     21  C   UNL     1     -46.747  -6.889 -32.803  0.00  0.00    +0.000 C 
ATOM     22  C   UNL     1     -46.420  -8.356 -32.984  0.00  0.00    +0.000 C 
ATOM     23  C   UNL     1     -46.294  -8.557 -34.474  0.00  0.00    +0.000 C 
ATOM     24  C   UNL     1     -45.756  -7.248 -35.003  0.00  0.00    +0.000 C 
ENDBRANCH  18  20
ENDBRANCH  10  16
BRANCH   4  25
ATOM     25  S   UNL     1     -40.788  -5.642 -34.318  0.00  0.00    +0.000 S 
BRANCH  25  26
ATOM     26  C   UNL     1     -40.263  -6.569 -32.840  0.00  0.00    +0.000 C 
BRANCH  26  27
ATOM     27  C   UNL     1     -41.386  -6.808 -31.879  0.00  0.00    +0.000 C 
ATOM     28  O   UNL     1     -42.048  -7.872 -31.984  0.00  0.00    +0.000 OA
ATOM     29  N   UNL     1     -41.686  -5.854 -30.848  0.00  0.00    +0.000 N 
ATOM     30  H   UNL     1     -41.084  -5.080 -30.774  0.00  0.00    +0.000 HD
BRANCH  29  31
ATOM     31  C   UNL     1     -42.772  -5.912 -29.914  0.00  0.00    +0.000 A 
ATOM     32  C   UNL     1     -44.041  -5.492 -30.329  0.00  0.00    +0.000 A 
ATOM     33  C   UNL     1     -45.129  -5.558 -29.455  0.00  0.00    +0.000 A 
ATOM     34  C   UNL     1     -44.956  -6.048 -28.158  0.00  0.00    +0.000 A 
ATOM     35  C   UNL     1     -43.693  -6.472 -27.735  0.00  0.00    +0.000 A 
ATOM     36  C   UNL     1     -42.605  -6.405 -28.610  0.00  0.00    +0.000 A 
ATOM     37  F   UNL     1     -46.012  -6.116 -27.312  0.00  0.00    +0.000 F 
ENDBRANCH  29  31
ENDBRANCH  26  27
ENDBRANCH  25  26
ENDBRANCH   4  25
TORSDOF 6
ENDMDL
