MODEL 1
REMARK VINA RESULT:      -6.9      0.000      0.000
REMARK  Name = ZINC000224489095
REMARK  3 active torsions:
REMARK  status: ('A' for Active; 'I' for Inactive)
REMARK    1  A    between atoms: C_1  and  C_25
REMARK    2  A    between atoms: N_3  and  C_5
REMARK    3  A    between atoms: N_27  and  S_28
REMARK                            x       y       z     vdW  Elec       q    Type
REMARK                         _______ _______ _______ _____ _____    ______ ____
ROOT
ATOM      1  C   UNL     1     -42.586  -6.726 -35.066  0.00  0.00    +0.000 C 
ATOM      2  O   UNL     1     -41.528  -7.105 -34.497  0.00  0.00    +0.000 OA
ATOM      3  N   UNL     1     -43.227  -7.611 -35.995  0.00  0.00    +0.000 N 
ATOM      4  H   UNL     1     -42.919  -8.546 -35.997  0.00  0.00    +0.000 HD
ENDROOT
BRANCH   3   5
ATOM      5  C   UNL     1     -44.274  -7.279 -36.922  0.00  0.00    +0.000 A 
ATOM      6  C   UNL     1     -45.644  -7.412 -36.573  0.00  0.00    +0.000 A 
ATOM      7  C   UNL     1     -46.669  -7.070 -37.480  0.00  0.00    +0.000 A 
ATOM      8  C   UNL     1     -46.302  -6.586 -38.735  0.00  0.00    +0.000 A 
ATOM      9  C   UNL     1     -44.993  -6.452 -39.057  0.00  0.00    +0.000 A 
ATOM     10  C   UNL     1     -44.815  -5.966 -40.312  0.00  0.00    +0.000 A 
ATOM     11  C   UNL     1     -43.524  -5.768 -40.811  0.00  0.00    +0.000 A 
ATOM     12  C   UNL     1     -42.429  -6.081 -39.977  0.00  0.00    +0.000 A 
ATOM     13  C   UNL     1     -42.636  -6.585 -38.671  0.00  0.00    +0.000 A 
ATOM     14  C   UNL     1     -43.947  -6.777 -38.199  0.00  0.00    +0.000 A 
ATOM     15  C   UNL     1     -46.137  -5.726 -40.965  0.00  0.00    +0.000 C 
ATOM     16  C   UNL     1     -47.163  -6.145 -39.875  0.00  0.00    +0.000 C 
ENDBRANCH   3   5
BRANCH   1  25
ATOM     17  C   UNL     1     -40.998  -0.153 -32.214  0.00  0.00    +0.000 C 
ATOM     18  C   UNL     1     -42.001  -1.210 -32.504  0.00  0.00    +0.000 A 
ATOM     19  C   UNL     1     -43.324  -1.055 -32.076  0.00  0.00    +0.000 A 
ATOM     20  C   UNL     1     -44.268  -2.051 -32.343  0.00  0.00    +0.000 A 
ATOM     21  C   UNL     1     -43.894  -3.205 -33.043  0.00  0.00    +0.000 A 
ATOM     22  C   UNL     1     -42.566  -3.349 -33.486  0.00  0.00    +0.000 A 
ATOM     23  C   UNL     1     -41.621  -2.357 -33.209  0.00  0.00    +0.000 A 
ATOM     24  O   UNL     1     -42.196  -4.493 -34.203  0.00  0.00    +0.000 OA
ATOM     25  C   UNL     1     -43.183  -5.398 -34.707  0.00  0.00    +0.000 C 
ATOM     26  C   UNL     1     -44.309  -5.577 -33.690  0.00  0.00    +0.000 C 
ATOM     27  N   UNL     1     -44.827  -4.266 -33.309  0.00  0.00    +0.000 N 
BRANCH  27  28
ATOM     28  S   UNL     1     -46.545  -4.019 -33.262  0.00  0.00    +0.000 S 
ATOM     29  C   UNL     1     -47.142  -4.205 -31.596  0.00  0.00    +0.000 C 
ATOM     30  O   UNL     1     -47.222  -5.013 -34.163  0.00  0.00    +0.000 OA
ATOM     31  O   UNL     1     -46.868  -2.629 -33.732  0.00  0.00    +0.000 OA
ENDBRANCH  27  28
ENDBRANCH   1  25
TORSDOF 3
ENDMDL
MODEL 2
REMARK VINA RESULT:      -6.9     16.244     19.193
REMARK  Name = ZINC000224489095
REMARK  3 active torsions:
REMARK  status: ('A' for Active; 'I' for Inactive)
REMARK    1  A    between atoms: C_1  and  C_25
REMARK    2  A    between atoms: N_3  and  C_5
REMARK    3  A    between atoms: N_27  and  S_28
REMARK                            x       y       z     vdW  Elec       q    Type
REMARK                         _______ _______ _______ _____ _____    ______ ____
ROOT
ATOM      1  C   UNL     1     -46.634 -14.399 -20.894  0.00  0.00    +0.000 C 
ATOM      2  O   UNL     1     -47.582 -13.572 -20.958  0.00  0.00    +0.000 OA
ATOM      3  N   UNL     1     -46.411 -15.101 -19.663  0.00  0.00    +0.000 N 
ATOM      4  H   UNL     1     -47.127 -15.048 -18.989  0.00  0.00    +0.000 HD
ENDROOT
BRANCH   3   5
ATOM      5  C   UNL     1     -45.253 -15.876 -19.309  0.00  0.00    +0.000 A 
ATOM      6  C   UNL     1     -44.006 -15.258 -19.025  0.00  0.00    +0.000 A 
ATOM      7  C   UNL     1     -42.876 -16.020 -18.661  0.00  0.00    +0.000 A 
ATOM      8  C   UNL     1     -43.015 -17.406 -18.580  0.00  0.00    +0.000 A 
ATOM      9  C   UNL     1     -44.211 -17.986 -18.842  0.00  0.00    +0.000 A 
ATOM     10  C   UNL     1     -44.170 -19.337 -18.713  0.00  0.00    +0.000 A 
ATOM     11  C   UNL     1     -45.317 -20.099 -18.951  0.00  0.00    +0.000 A 
ATOM     12  C   UNL     1     -46.502 -19.426 -19.320  0.00  0.00    +0.000 A 
ATOM     13  C   UNL     1     -46.525 -18.017 -19.448  0.00  0.00    +0.000 A 
ATOM     14  C   UNL     1     -45.353 -17.279 -19.205  0.00  0.00    +0.000 A 
ATOM     15  C   UNL     1     -42.798 -19.777 -18.317  0.00  0.00    +0.000 C 
ATOM     16  C   UNL     1     -42.003 -18.444 -18.216  0.00  0.00    +0.000 C 
ENDBRANCH   3   5
BRANCH   1  25
ATOM     17  C   UNL     1     -45.663 -12.414 -27.893  0.00  0.00    +0.000 C 
ATOM     18  C   UNL     1     -45.534 -13.442 -26.827  0.00  0.00    +0.000 A 
ATOM     19  C   UNL     1     -45.026 -14.709 -27.135  0.00  0.00    +0.000 A 
ATOM     20  C   UNL     1     -44.909 -15.679 -26.137  0.00  0.00    +0.000 A 
ATOM     21  C   UNL     1     -45.296 -15.386 -24.822  0.00  0.00    +0.000 A 
ATOM     22  C   UNL     1     -45.789 -14.104 -24.513  0.00  0.00    +0.000 A 
ATOM     23  C   UNL     1     -45.916 -13.139 -25.516  0.00  0.00    +0.000 A 
ATOM     24  O   UNL     1     -46.157 -13.805 -23.196  0.00  0.00    +0.000 OA
ATOM     25  C   UNL     1     -45.814 -14.680 -22.117  0.00  0.00    +0.000 C 
ATOM     26  C   UNL     1     -45.975 -16.138 -22.544  0.00  0.00    +0.000 C 
ATOM     27  N   UNL     1     -45.221 -16.366 -23.774  0.00  0.00    +0.000 N 
BRANCH  27  28
ATOM     28  S   UNL     1     -44.209 -17.772 -23.893  0.00  0.00    +0.000 S 
ATOM     29  C   UNL     1     -44.355 -18.755 -22.417  0.00  0.00    +0.000 C 
ATOM     30  O   UNL     1     -42.780 -17.349 -24.089  0.00  0.00    +0.000 OA
ATOM     31  O   UNL     1     -44.640 -18.607 -25.067  0.00  0.00    +0.000 OA
ENDBRANCH  27  28
ENDBRANCH   1  25
TORSDOF 3
ENDMDL
MODEL 3
REMARK VINA RESULT:      -6.8      4.471      6.674
REMARK  Name = ZINC000224489095
REMARK  3 active torsions:
REMARK  status: ('A' for Active; 'I' for Inactive)
REMARK    1  A    between atoms: C_1  and  C_25
REMARK    2  A    between atoms: N_3  and  C_5
REMARK    3  A    between atoms: N_27  and  S_28
REMARK                            x       y       z     vdW  Elec       q    Type
REMARK                         _______ _______ _______ _____ _____    ______ ____
ROOT
ATOM      1  C   UNL     1     -42.641  -7.342 -32.457  0.00  0.00    +0.000 C 
ATOM      2  O   UNL     1     -42.421  -8.560 -32.688  0.00  0.00    +0.000 OA
ATOM      3  N   UNL     1     -42.344  -6.379 -33.478  0.00  0.00    +0.000 N 
ATOM      4  H   UNL     1     -42.166  -6.735 -34.379  0.00  0.00    +0.000 HD
ENDROOT
BRANCH   3   5
ATOM      5  C   UNL     1     -42.279  -4.952 -33.327  0.00  0.00    +0.000 A 
ATOM      6  C   UNL     1     -41.039  -4.279 -33.165  0.00  0.00    +0.000 A 
ATOM      7  C   UNL     1     -40.977  -2.876 -33.033  0.00  0.00    +0.000 A 
ATOM      8  C   UNL     1     -42.173  -2.158 -33.074  0.00  0.00    +0.000 A 
ATOM      9  C   UNL     1     -43.351  -2.807 -33.239  0.00  0.00    +0.000 A 
ATOM     10  C   UNL     1     -44.411  -1.959 -33.259  0.00  0.00    +0.000 A 
ATOM     11  C   UNL     1     -45.706  -2.459 -33.417  0.00  0.00    +0.000 A 
ATOM     12  C   UNL     1     -45.872  -3.854 -33.559  0.00  0.00    +0.000 A 
ATOM     13  C   UNL     1     -44.754  -4.721 -33.537  0.00  0.00    +0.000 A 
ATOM     14  C   UNL     1     -43.463  -4.187 -33.372  0.00  0.00    +0.000 A 
ATOM     15  C   UNL     1     -43.947  -0.548 -33.088  0.00  0.00    +0.000 C 
ATOM     16  C   UNL     1     -42.403  -0.685 -32.969  0.00  0.00    +0.000 C 
ENDBRANCH   3   5
BRANCH   1  25
ATOM     17  C   UNL     1     -41.322  -6.605 -25.274  0.00  0.00    +0.000 C 
ATOM     18  C   UNL     1     -42.294  -6.812 -26.379  0.00  0.00    +0.000 A 
ATOM     19  C   UNL     1     -43.650  -7.003 -26.092  0.00  0.00    +0.000 A 
ATOM     20  C   UNL     1     -44.565  -7.203 -27.129  0.00  0.00    +0.000 A 
ATOM     21  C   UNL     1     -44.128  -7.211 -28.460  0.00  0.00    +0.000 A 
ATOM     22  C   UNL     1     -42.766  -7.001 -28.746  0.00  0.00    +0.000 A 
ATOM     23  C   UNL     1     -41.851  -6.812 -27.706  0.00  0.00    +0.000 A 
ATOM     24  O   UNL     1     -42.333  -6.989 -30.077  0.00  0.00    +0.000 OA
ATOM     25  C   UNL     1     -43.270  -6.937 -31.157  0.00  0.00    +0.000 C 
ATOM     26  C   UNL     1     -44.481  -7.817 -30.853  0.00  0.00    +0.000 C 
ATOM     27  N   UNL     1     -45.032  -7.446 -29.553  0.00  0.00    +0.000 N 
BRANCH  27  28
ATOM     28  S   UNL     1     -46.749  -7.232 -29.394  0.00  0.00    +0.000 S 
ATOM     29  C   UNL     1     -47.504  -7.161 -31.004  0.00  0.00    +0.000 C 
ATOM     30  O   UNL     1     -47.031  -5.964 -28.639  0.00  0.00    +0.000 OA
ATOM     31  O   UNL     1     -47.335  -8.394 -28.643  0.00  0.00    +0.000 OA
ENDBRANCH  27  28
ENDBRANCH   1  25
TORSDOF 3
ENDMDL
