MODEL 1
REMARK VINA RESULT:      -6.2      0.000      0.000
REMARK  Name = ZINC000009112329 ZINC09112329 PubChem-40938212
REMARK  5 active torsions:
REMARK  status: ('A' for Active; 'I' for Inactive)
REMARK    1  A    between atoms: N_1  and  C_10
REMARK    2  A    between atoms: C_2  and  C_18
REMARK    3  A    between atoms: C_5  and  O_15
REMARK    4  A    between atoms: O_15  and  C_17
REMARK    5  A    between atoms: C_19  and  C_20
REMARK                            x       y       z     vdW  Elec       q    Type
REMARK                         _______ _______ _______ _____ _____    ______ ____
ROOT
ATOM      1  N   UNL     1     -46.396  -5.960 -31.835  0.00  0.00    +0.000 N 
ATOM      2  C   UNL     1     -46.478  -4.595 -31.406  0.00  0.00    +0.000 C 
ATOM      3  O   UNL     1     -46.645  -3.694 -32.272  0.00  0.00    +0.000 OA
ATOM      4  H   UNL     1     -46.701  -6.149 -32.753  0.00  0.00    +0.000 HD
ENDROOT
BRANCH   1  10
ATOM      5  C   UNL     1     -44.517  -7.265 -30.853  0.00  0.00    +0.000 A 
ATOM      6  C   UNL     1     -44.080  -8.325 -30.035  0.00  0.00    +0.000 A 
ATOM      7  C   UNL     1     -45.022  -9.174 -29.469  0.00  0.00    +0.000 A 
ATOM      8  C   UNL     1     -46.353  -9.007 -29.689  0.00  0.00    +0.000 A 
ATOM      9  C   UNL     1     -46.836  -7.969 -30.476  0.00  0.00    +0.000 A 
ATOM     10  C   UNL     1     -45.918  -7.080 -31.075  0.00  0.00    +0.000 A 
ATOM     11  O   UNL     1     -47.095  -9.959 -29.028  0.00  0.00    +0.000 OA
ATOM     12  C   UNL     1     -46.233 -10.847 -28.316  0.00  0.00    +0.000 C 
ATOM     13  C   UNL     1     -44.797 -10.349 -28.585  0.00  0.00    +0.000 C 
ATOM     14  C   UNL     1     -46.535 -10.768 -26.834  0.00  0.00    +0.000 C 
BRANCH   5  15
ATOM     15  O   UNL     1     -43.522  -6.457 -31.423  0.00  0.00    +0.000 OA
BRANCH  15  17
ATOM     16  C   UNL     1     -41.277  -5.832 -30.854  0.00  0.00    +0.000 C 
ATOM     17  C   UNL     1     -42.750  -5.500 -30.710  0.00  0.00    +0.000 C 
ENDBRANCH  15  17
ENDBRANCH   5  15
ENDBRANCH   1  10
BRANCH   2  18
ATOM     18  C   UNL     1     -46.421  -4.239 -29.979  0.00  0.00    +0.000 C 
ATOM     19  C   UNL     1     -47.464  -4.381 -29.169  0.00  0.00    +0.000 C 
BRANCH  19  20
ATOM     20  C   UNL     1     -47.385  -4.030 -27.746  0.00  0.00    +0.000 A 
ATOM     21  C   UNL     1     -47.203  -4.934 -26.694  0.00  0.00    +0.000 A 
ATOM     22  C   UNL     1     -47.211  -4.117 -25.584  0.00  0.00    +0.000 A 
ATOM     23  C   UNL     1     -47.070  -4.436 -24.237  0.00  0.00    +0.000 A 
ATOM     24  C   UNL     1     -47.115  -3.380 -23.310  0.00  0.00    +0.000 A 
ATOM     25  C   UNL     1     -47.291  -2.051 -23.746  0.00  0.00    +0.000 A 
ATOM     26  C   UNL     1     -47.429  -1.760 -25.117  0.00  0.00    +0.000 A 
ATOM     27  C   UNL     1     -47.384  -2.828 -26.007  0.00  0.00    +0.000 A 
ATOM     28  O   UNL     1     -47.490  -2.790 -27.309  0.00  0.00    +0.000 OA
ENDBRANCH  19  20
ENDBRANCH   2  18
TORSDOF 5
ENDMDL
MODEL 2
REMARK VINA RESULT:      -6.0      1.955      2.507
REMARK  Name = ZINC000009112329 ZINC09112329 PubChem-40938212
REMARK  5 active torsions:
REMARK  status: ('A' for Active; 'I' for Inactive)
REMARK    1  A    between atoms: N_1  and  C_10
REMARK    2  A    between atoms: C_2  and  C_18
REMARK    3  A    between atoms: C_5  and  O_15
REMARK    4  A    between atoms: O_15  and  C_17
REMARK    5  A    between atoms: C_19  and  C_20
REMARK                            x       y       z     vdW  Elec       q    Type
REMARK                         _______ _______ _______ _____ _____    ______ ____
ROOT
ATOM      1  N   UNL     1     -46.887  -8.021 -30.713  0.00  0.00    +0.000 N 
ATOM      2  C   UNL     1     -47.007  -6.611 -30.486  0.00  0.00    +0.000 C 
ATOM      3  O   UNL     1     -47.184  -5.849 -31.475  0.00  0.00    +0.000 OA
ATOM      4  H   UNL     1     -47.174  -8.349 -31.597  0.00  0.00    +0.000 HD
ENDROOT
BRANCH   1  10
ATOM      5  C   UNL     1     -45.159  -9.686 -30.049  0.00  0.00    +0.000 A 
ATOM      6  C   UNL     1     -44.655 -10.589 -29.092  0.00  0.00    +0.000 A 
ATOM      7  C   UNL     1     -45.375 -10.805 -27.923  0.00  0.00    +0.000 A 
ATOM      8  C   UNL     1     -46.553 -10.169 -27.686  0.00  0.00    +0.000 A 
ATOM      9  C   UNL     1     -47.085  -9.260 -28.591  0.00  0.00    +0.000 A 
ATOM     10  C   UNL     1     -46.392  -9.008 -29.794  0.00  0.00    +0.000 A 
ATOM     11  O   UNL     1     -47.084 -10.534 -26.470  0.00  0.00    +0.000 OA
ATOM     12  C   UNL     1     -46.235 -11.486 -25.828  0.00  0.00    +0.000 C 
ATOM     13  C   UNL     1     -45.044 -11.704 -26.786  0.00  0.00    +0.000 C 
ATOM     14  C   UNL     1     -45.739 -10.918 -24.513  0.00  0.00    +0.000 C 
BRANCH   5  15
ATOM     15  O   UNL     1     -44.408  -9.528 -31.223  0.00  0.00    +0.000 OA
BRANCH  15  17
ATOM     16  C   UNL     1     -45.505 -11.030 -32.738  0.00  0.00    +0.000 C 
ATOM     17  C   UNL     1     -44.178 -10.555 -32.180  0.00  0.00    +0.000 C 
ENDBRANCH  15  17
ENDBRANCH   5  15
ENDBRANCH   1  10
BRANCH   2  18
ATOM     18  C   UNL     1     -46.978  -6.051 -29.126  0.00  0.00    +0.000 C 
ATOM     19  C   UNL     1     -47.307  -4.790 -28.869  0.00  0.00    +0.000 C 
BRANCH  19  20
ATOM     20  C   UNL     1     -47.281  -4.252 -27.504  0.00  0.00    +0.000 A 
ATOM     21  C   UNL     1     -47.136  -5.007 -26.335  0.00  0.00    +0.000 A 
ATOM     22  C   UNL     1     -47.186  -4.050 -25.344  0.00  0.00    +0.000 A 
ATOM     23  C   UNL     1     -47.094  -4.187 -23.963  0.00  0.00    +0.000 A 
ATOM     24  C   UNL     1     -47.174  -3.017 -23.187  0.00  0.00    +0.000 A 
ATOM     25  C   UNL     1     -47.336  -1.758 -23.802  0.00  0.00    +0.000 A 
ATOM     26  C   UNL     1     -47.423  -1.653 -25.203  0.00  0.00    +0.000 A 
ATOM     27  C   UNL     1     -47.345  -2.830 -25.941  0.00  0.00    +0.000 A 
ATOM     28  O   UNL     1     -47.403  -2.965 -27.239  0.00  0.00    +0.000 OA
ENDBRANCH  19  20
ENDBRANCH   2  18
TORSDOF 5
ENDMDL
MODEL 3
REMARK VINA RESULT:      -5.9      3.612      6.429
REMARK  Name = ZINC000009112329 ZINC09112329 PubChem-40938212
REMARK  5 active torsions:
REMARK  status: ('A' for Active; 'I' for Inactive)
REMARK    1  A    between atoms: N_1  and  C_10
REMARK    2  A    between atoms: C_2  and  C_18
REMARK    3  A    between atoms: C_5  and  O_15
REMARK    4  A    between atoms: O_15  and  C_17
REMARK    5  A    between atoms: C_19  and  C_20
REMARK                            x       y       z     vdW  Elec       q    Type
REMARK                         _______ _______ _______ _____ _____    ______ ____
ROOT
ATOM      1  N   UNL     1     -47.432  -4.757 -32.170  0.00  0.00    +0.000 N 
ATOM      2  C   UNL     1     -46.892  -3.840 -33.130  0.00  0.00    +0.000 C 
ATOM      3  O   UNL     1     -47.667  -3.322 -33.979  0.00  0.00    +0.000 OA
ATOM      4  H   UNL     1     -48.413  -4.763 -32.074  0.00  0.00    +0.000 HD
ENDROOT
BRANCH   1  10
ATOM      5  C   UNL     1     -46.404  -6.992 -31.788  0.00  0.00    +0.000 A 
ATOM      6  C   UNL     1     -45.614  -7.838 -30.984  0.00  0.00    +0.000 A 
ATOM      7  C   UNL     1     -45.148  -7.367 -29.763  0.00  0.00    +0.000 A 
ATOM      8  C   UNL     1     -45.440  -6.113 -29.327  0.00  0.00    +0.000 A 
ATOM      9  C   UNL     1     -46.203  -5.236 -30.088  0.00  0.00    +0.000 A 
ATOM     10  C   UNL     1     -46.701  -5.668 -31.335  0.00  0.00    +0.000 A 
ATOM     11  O   UNL     1     -44.874  -5.864 -28.098  0.00  0.00    +0.000 OA
ATOM     12  C   UNL     1     -44.155  -7.013 -27.646  0.00  0.00    +0.000 C 
ATOM     13  C   UNL     1     -44.312  -8.073 -28.757  0.00  0.00    +0.000 C 
ATOM     14  C   UNL     1     -42.691  -6.661 -27.474  0.00  0.00    +0.000 C 
BRANCH   5  15
ATOM     15  O   UNL     1     -46.872  -7.529 -32.997  0.00  0.00    +0.000 OA
BRANCH  15  17
ATOM     16  C   UNL     1     -45.552  -6.790 -34.858  0.00  0.00    +0.000 C 
ATOM     17  C   UNL     1     -46.041  -7.981 -34.057  0.00  0.00    +0.000 C 
ENDBRANCH  15  17
ENDBRANCH   5  15
ENDBRANCH   1  10
BRANCH   2  18
ATOM     18  C   UNL     1     -45.471  -3.460 -33.107  0.00  0.00    +0.000 C 
ATOM     19  C   UNL     1     -45.064  -2.251 -32.735  0.00  0.00    +0.000 C 
BRANCH  19  20
ATOM     20  C   UNL     1     -43.641  -1.894 -32.709  0.00  0.00    +0.000 A 
ATOM     21  C   UNL     1     -43.126  -0.627 -32.413  0.00  0.00    +0.000 A 
ATOM     22  C   UNL     1     -41.766  -0.814 -32.533  0.00  0.00    +0.000 A 
ATOM     23  C   UNL     1     -40.720   0.086 -32.356  0.00  0.00    +0.000 A 
ATOM     24  C   UNL     1     -39.411  -0.392 -32.545  0.00  0.00    +0.000 A 
ATOM     25  C   UNL     1     -39.184  -1.739 -32.894  0.00  0.00    +0.000 A 
ATOM     26  C   UNL     1     -40.263  -2.626 -33.063  0.00  0.00    +0.000 A 
ATOM     27  C   UNL     1     -41.546  -2.120 -32.874  0.00  0.00    +0.000 A 
ATOM     28  O   UNL     1     -42.681  -2.758 -32.979  0.00  0.00    +0.000 OA
ENDBRANCH  19  20
ENDBRANCH   2  18
TORSDOF 5
ENDMDL
