MODEL 1
REMARK VINA RESULT:      -6.7      0.000      0.000
REMARK  Name = ZINC000018200371
REMARK  2 active torsions:
REMARK  status: ('A' for Active; 'I' for Inactive)
REMARK    1  A    between atoms: C_1  and  C_31
REMARK    2  A    between atoms: C_3  and  O_4
REMARK                            x       y       z     vdW  Elec       q    Type
REMARK                         _______ _______ _______ _____ _____    ______ ____
ROOT
ATOM      1  C   UNL     1     -44.006  -6.490 -31.432  0.00  0.00    +0.000 C 
ATOM      2  C   UNL     1     -44.924  -6.975 -32.510  0.00  0.00    +0.000 A 
ATOM      3  C   UNL     1     -44.765  -7.166 -33.860  0.00  0.00    +0.000 A 
ATOM      4  N   UNL     1     -45.921  -7.613 -34.396  0.00  0.00    +0.000 NA
ATOM      5  N   UNL     1     -46.820  -7.715 -33.420  0.00  0.00    +0.000 N 
ATOM      6  C   UNL     1     -46.211  -7.328 -32.286  0.00  0.00    +0.000 A 
ATOM      7  N   UNL     1     -46.787  -7.295 -30.987  0.00  0.00    +0.000 N 
ATOM      8  C   UNL     1     -45.961  -6.921 -29.870  0.00  0.00    +0.000 C 
ATOM      9  C   UNL     1     -44.656  -6.551 -30.043  0.00  0.00    +0.000 C 
ATOM     10  C   UNL     1     -43.816  -6.265 -28.853  0.00  0.00    +0.000 C 
ATOM     11  O   UNL     1     -42.591  -6.002 -28.983  0.00  0.00    +0.000 OA
ATOM     12  C   UNL     1     -44.411  -6.257 -27.476  0.00  0.00    +0.000 C 
ATOM     13  C   UNL     1     -45.620  -7.184 -27.371  0.00  0.00    +0.000 C 
ATOM     14  C   UNL     1     -46.316  -6.922 -26.054  0.00  0.00    +0.000 C 
ATOM     15  C   UNL     1     -45.178  -8.639 -27.398  0.00  0.00    +0.000 C 
ATOM     16  C   UNL     1     -46.604  -6.902 -28.508  0.00  0.00    +0.000 C 
ATOM     17  H   UNL     1     -47.752  -8.016 -33.511  0.00  0.00    +0.000 HD
ATOM     18  H   UNL     1     -47.736  -7.523 -30.854  0.00  0.00    +0.000 HD
ENDROOT
BRANCH   1  29
ATOM     19  C   UNL     1     -41.112  -6.018 -32.230  0.00  0.00    +0.000 C 
ATOM     20  C   UNL     1     -42.101  -4.906 -32.127  0.00  0.00    +0.000 A 
ATOM     21  N   UNL     1     -41.683  -3.641 -32.397  0.00  0.00    +0.000 NA
ATOM     22  C   UNL     1     -42.531  -2.584 -32.316  0.00  0.00    +0.000 A 
ATOM     23  C   UNL     1     -42.084  -1.290 -32.597  0.00  0.00    +0.000 A 
ATOM     24  C   UNL     1     -42.972  -0.213 -32.507  0.00  0.00    +0.000 A 
ATOM     25  C   UNL     1     -44.305  -0.428 -32.137  0.00  0.00    +0.000 A 
ATOM     26  C   UNL     1     -44.755  -1.723 -31.855  0.00  0.00    +0.000 A 
ATOM     27  C   UNL     1     -43.871  -2.801 -31.944  0.00  0.00    +0.000 A 
ATOM     28  N   UNL     1     -44.291  -4.062 -31.673  0.00  0.00    +0.000 NA
ATOM     29  C   UNL     1     -43.448  -5.127 -31.755  0.00  0.00    +0.000 A 
ENDBRANCH   1  29
BRANCH   3  30
ATOM     30  O   UNL     1     -43.604  -6.938 -34.587  0.00  0.00    +0.000 OA
ATOM     31  H   UNL     1     -43.647  -6.829 -35.516  0.00  0.00    +0.000 HD
ENDBRANCH   3  30
TORSDOF 2
ENDMDL
MODEL 2
REMARK VINA RESULT:      -6.6     14.802     16.833
REMARK  Name = ZINC000018200371
REMARK  2 active torsions:
REMARK  status: ('A' for Active; 'I' for Inactive)
REMARK    1  A    between atoms: C_1  and  C_31
REMARK    2  A    between atoms: C_3  and  O_4
REMARK                            x       y       z     vdW  Elec       q    Type
REMARK                         _______ _______ _______ _____ _____    ______ ____
ROOT
ATOM      1  C   UNL     1     -43.105 -18.106 -20.284  0.00  0.00    +0.000 C 
ATOM      2  C   UNL     1     -43.101 -19.395 -19.521  0.00  0.00    +0.000 A 
ATOM      3  C   UNL     1     -42.186 -20.410 -19.402  0.00  0.00    +0.000 A 
ATOM      4  N   UNL     1     -42.676 -21.373 -18.592  0.00  0.00    +0.000 NA
ATOM      5  N   UNL     1     -43.887 -20.998 -18.187  0.00  0.00    +0.000 N 
ATOM      6  C   UNL     1     -44.136 -19.804 -18.752  0.00  0.00    +0.000 A 
ATOM      7  N   UNL     1     -45.308 -19.018 -18.581  0.00  0.00    +0.000 N 
ATOM      8  C   UNL     1     -45.372 -17.724 -19.208  0.00  0.00    +0.000 C 
ATOM      9  C   UNL     1     -44.356 -17.265 -19.999  0.00  0.00    +0.000 C 
ATOM     10  C   UNL     1     -44.425 -15.887 -20.546  0.00  0.00    +0.000 C 
ATOM     11  O   UNL     1     -43.465 -15.415 -21.210  0.00  0.00    +0.000 OA
ATOM     12  C   UNL     1     -45.647 -15.040 -20.346  0.00  0.00    +0.000 C 
ATOM     13  C   UNL     1     -46.390 -15.406 -19.063  0.00  0.00    +0.000 C 
ATOM     14  C   UNL     1     -47.732 -14.707 -19.067  0.00  0.00    +0.000 C 
ATOM     15  C   UNL     1     -45.610 -14.938 -17.844  0.00  0.00    +0.000 C 
ATOM     16  C   UNL     1     -46.626 -16.916 -19.000  0.00  0.00    +0.000 C 
ATOM     17  H   UNL     1     -44.485 -21.500 -17.588  0.00  0.00    +0.000 HD
ATOM     18  H   UNL     1     -46.062 -19.352 -18.044  0.00  0.00    +0.000 HD
ENDROOT
BRANCH   1  29
ATOM     19  C   UNL     1     -40.489 -17.468 -21.692  0.00  0.00    +0.000 C 
ATOM     20  C   UNL     1     -41.662 -18.041 -22.413  0.00  0.00    +0.000 A 
ATOM     21  N   UNL     1     -41.550 -18.277 -23.747  0.00  0.00    +0.000 NA
ATOM     22  C   UNL     1     -42.582 -18.791 -24.463  0.00  0.00    +0.000 A 
ATOM     23  C   UNL     1     -42.449 -19.029 -25.834  0.00  0.00    +0.000 A 
ATOM     24  C   UNL     1     -43.524 -19.559 -26.556  0.00  0.00    +0.000 A 
ATOM     25  C   UNL     1     -44.730 -19.850 -25.909  0.00  0.00    +0.000 A 
ATOM     26  C   UNL     1     -44.867 -19.614 -24.537  0.00  0.00    +0.000 A 
ATOM     27  C   UNL     1     -43.795 -19.086 -23.813  0.00  0.00    +0.000 A 
ATOM     28  N   UNL     1     -43.911 -18.850 -22.481  0.00  0.00    +0.000 NA
ATOM     29  C   UNL     1     -42.880 -18.338 -21.756  0.00  0.00    +0.000 A 
ENDBRANCH   1  29
BRANCH   3  30
ATOM     30  O   UNL     1     -40.940 -20.464 -20.014  0.00  0.00    +0.000 OA
ATOM     31  H   UNL     1     -40.645 -19.749 -20.541  0.00  0.00    +0.000 HD
ENDBRANCH   3  30
TORSDOF 2
ENDMDL
MODEL 3
REMARK VINA RESULT:      -6.4      3.014      6.949
REMARK  Name = ZINC000018200371
REMARK  2 active torsions:
REMARK  status: ('A' for Active; 'I' for Inactive)
REMARK    1  A    between atoms: C_1  and  C_31
REMARK    2  A    between atoms: C_3  and  O_4
REMARK                            x       y       z     vdW  Elec       q    Type
REMARK                         _______ _______ _______ _____ _____    ______ ____
ROOT
ATOM      1  C   UNL     1     -44.983  -6.012 -28.479  0.00  0.00    +0.000 C 
ATOM      2  C   UNL     1     -45.932  -5.787 -27.343  0.00  0.00    +0.000 A 
ATOM      3  C   UNL     1     -45.932  -6.184 -26.030  0.00  0.00    +0.000 A 
ATOM      4  N   UNL     1     -47.042  -5.723 -25.414  0.00  0.00    +0.000 NA
ATOM      5  N   UNL     1     -47.755  -5.037 -26.303  0.00  0.00    +0.000 N 
ATOM      6  C   UNL     1     -47.080  -5.080 -27.464  0.00  0.00    +0.000 A 
ATOM      7  N   UNL     1     -47.461  -4.463 -28.687  0.00  0.00    +0.000 N 
ATOM      8  C   UNL     1     -46.574  -4.553 -29.816  0.00  0.00    +0.000 C 
ATOM      9  C   UNL     1     -45.405  -5.258 -29.748  0.00  0.00    +0.000 C 
ATOM     10  C   UNL     1     -44.478  -5.244 -30.907  0.00  0.00    +0.000 C 
ATOM     11  O   UNL     1     -43.359  -5.820 -30.837  0.00  0.00    +0.000 OA
ATOM     12  C   UNL     1     -44.861  -4.571 -32.191  0.00  0.00    +0.000 C 
ATOM     13  C   UNL     1     -45.837  -3.419 -31.961  0.00  0.00    +0.000 C 
ATOM     14  C   UNL     1     -46.378  -2.970 -33.301  0.00  0.00    +0.000 C 
ATOM     15  C   UNL     1     -45.127  -2.241 -31.311  0.00  0.00    +0.000 C 
ATOM     16  C   UNL     1     -47.008  -3.883 -31.093  0.00  0.00    +0.000 C 
ATOM     17  H   UNL     1     -48.614  -4.585 -26.141  0.00  0.00    +0.000 HD
ATOM     18  H   UNL     1     -48.318  -3.983 -28.759  0.00  0.00    +0.000 HD
ENDROOT
BRANCH   1  29
ATOM     19  C   UNL     1     -42.355  -7.414 -27.879  0.00  0.00    +0.000 C 
ATOM     20  C   UNL     1     -43.532  -8.136 -28.443  0.00  0.00    +0.000 A 
ATOM     21  N   UNL     1     -43.414  -9.466 -28.700  0.00  0.00    +0.000 NA
ATOM     22  C   UNL     1     -44.444 -10.180 -29.219  0.00  0.00    +0.000 A 
ATOM     23  C   UNL     1     -44.305 -11.547 -29.475  0.00  0.00    +0.000 A 
ATOM     24  C   UNL     1     -45.379 -12.267 -30.011  0.00  0.00    +0.000 A 
ATOM     25  C   UNL     1     -46.589 -11.622 -30.291  0.00  0.00    +0.000 A 
ATOM     26  C   UNL     1     -46.732 -10.253 -30.036  0.00  0.00    +0.000 A 
ATOM     27  C   UNL     1     -45.662  -9.532 -29.499  0.00  0.00    +0.000 A 
ATOM     28  N   UNL     1     -45.783  -8.204 -29.246  0.00  0.00    +0.000 NA
ATOM     29  C   UNL     1     -44.755  -7.482 -28.722  0.00  0.00    +0.000 A 
ENDBRANCH   1  29
BRANCH   3  30
ATOM     30  O   UNL     1     -44.953  -6.947 -25.406  0.00  0.00    +0.000 OA
ATOM     31  H   UNL     1     -44.459  -7.570 -25.901  0.00  0.00    +0.000 HD
ENDBRANCH   3  30
TORSDOF 2
ENDMDL
