MODEL 1
REMARK VINA RESULT:      -5.7      0.000      0.000
REMARK  Name = ZINC000065307388 ZINC65307388 ChemDiv-P103-1197 MolPort-010-961-951 PubChem-53200924
REMARK  7 active torsions:
REMARK  status: ('A' for Active; 'I' for Inactive)
REMARK    1  A    between atoms: C_2  and  C_3
REMARK    2  A    between atoms: C_4  and  C_5
REMARK    3  A    between atoms: C_6  and  S_25
REMARK    4  A    between atoms: C_7  and  C_8
REMARK    5  A    between atoms: C_7  and  S_25
REMARK    6  A    between atoms: C_9  and  C_10
REMARK    7  A    between atoms: C_9  and  N_20
REMARK                            x       y       z     vdW  Elec       q    Type
REMARK                         _______ _______ _______ _____ _____    ______ ____
ROOT
ATOM      1  C   UNL     1     -45.207 -18.066 -22.643  0.00  0.00    +0.000 A 
ATOM      2  C   UNL     1     -45.542 -16.726 -22.320  0.00  0.00    +0.000 A 
ATOM      3  C   UNL     1     -45.351 -17.206 -19.993  0.00  0.00    +0.000 A 
ATOM      4  C   UNL     1     -45.022 -18.530 -20.264  0.00  0.00    +0.000 A 
ATOM      5  C   UNL     1     -44.952 -18.954 -21.589  0.00  0.00    +0.000 A 
ATOM      6  N   UNL     1     -45.600 -16.346 -21.013  0.00  0.00    +0.000 NA
ENDROOT
BRANCH   1   8
ATOM      7  C   UNL     1     -44.359 -19.140 -25.900  0.00  0.00    +0.000 A 
ATOM      8  C   UNL     1     -45.110 -18.596 -24.027  0.00  0.00    +0.000 A 
ATOM      9  N   UNL     1     -43.964 -18.572 -24.746  0.00  0.00    +0.000 NA
ATOM     10  N   UNL     1     -46.127 -19.150 -24.717  0.00  0.00    +0.000 NA
ATOM     11  O   UNL     1     -45.624 -19.473 -25.868  0.00  0.00    +0.000 OA
BRANCH   7  13
ATOM     12  C   UNL     1     -42.071 -19.741 -26.580  0.00  0.00    +0.000 C 
ATOM     13  C   UNL     1     -43.458 -19.366 -27.063  0.00  0.00    +0.000 C 
ENDBRANCH   7  13
ENDBRANCH   1   8
BRANCH   2  14
ATOM     14  S   UNL     1     -45.898 -15.475 -23.556  0.00  0.00    +0.000 S 
BRANCH  14  15
ATOM     15  C   UNL     1     -44.144 -15.022 -23.712  0.00  0.00    +0.000 C 
BRANCH  15  16
ATOM     16  C   UNL     1     -43.771 -14.913 -25.149  0.00  0.00    +0.000 C 
ATOM     17  N   UNL     1     -44.718 -15.265 -26.158  0.00  0.00    +0.000 NA
ATOM     18  O   UNL     1     -42.616 -14.522 -25.463  0.00  0.00    +0.000 OA
BRANCH  17  19
ATOM     19  C   UNL     1     -44.404 -15.176 -27.574  0.00  0.00    +0.000 C 
BRANCH  19  20
ATOM     20  C   UNL     1     -45.318 -14.203 -28.230  0.00  0.00    +0.000 A 
ATOM     21  C   UNL     1     -45.943 -12.978 -30.167  0.00  0.00    +0.000 A 
ATOM     22  C   UNL     1     -46.973 -12.350 -29.464  0.00  0.00    +0.000 A 
ATOM     23  C   UNL     1     -47.166 -12.661 -28.116  0.00  0.00    +0.000 A 
ATOM     24  C   UNL     1     -46.333 -13.591 -27.490  0.00  0.00    +0.000 A 
ATOM     25  N   UNL     1     -45.140 -13.881 -29.541  0.00  0.00    +0.000 NA
ENDBRANCH  19  20
ENDBRANCH  17  19
ENDBRANCH  15  16
ENDBRANCH  14  15
ENDBRANCH   2  14
TORSDOF 7
ENDMDL
MODEL 2
REMARK VINA RESULT:      -5.6      3.476      7.409
REMARK  Name = ZINC000065307388 ZINC65307388 ChemDiv-P103-1197 MolPort-010-961-951 PubChem-53200924
REMARK  7 active torsions:
REMARK  status: ('A' for Active; 'I' for Inactive)
REMARK    1  A    between atoms: C_2  and  C_3
REMARK    2  A    between atoms: C_4  and  C_5
REMARK    3  A    between atoms: C_6  and  S_25
REMARK    4  A    between atoms: C_7  and  C_8
REMARK    5  A    between atoms: C_7  and  S_25
REMARK    6  A    between atoms: C_9  and  C_10
REMARK    7  A    between atoms: C_9  and  N_20
REMARK                            x       y       z     vdW  Elec       q    Type
REMARK                         _______ _______ _______ _____ _____    ______ ____
ROOT
ATOM      1  C   UNL     1     -43.024 -19.498 -25.923  0.00  0.00    +0.000 A 
ATOM      2  C   UNL     1     -42.263 -20.300 -25.032  0.00  0.00    +0.000 A 
ATOM      3  C   UNL     1     -40.550 -20.551 -26.669  0.00  0.00    +0.000 A 
ATOM      4  C   UNL     1     -41.262 -19.774 -27.577  0.00  0.00    +0.000 A 
ATOM      5  C   UNL     1     -42.497 -19.252 -27.198  0.00  0.00    +0.000 A 
ATOM      6  N   UNL     1     -41.059 -20.793 -25.434  0.00  0.00    +0.000 NA
ENDROOT
BRANCH   1   8
ATOM      7  C   UNL     1     -45.839 -17.532 -25.093  0.00  0.00    +0.000 A 
ATOM      8  C   UNL     1     -44.345 -18.905 -25.597  0.00  0.00    +0.000 A 
ATOM      9  N   UNL     1     -44.514 -17.591 -25.321  0.00  0.00    +0.000 NA
ATOM     10  N   UNL     1     -45.507 -19.587 -25.537  0.00  0.00    +0.000 NA
ATOM     11  O   UNL     1     -46.405 -18.705 -25.225  0.00  0.00    +0.000 OA
BRANCH   7  13
ATOM     12  C   UNL     1     -45.854 -15.568 -23.610  0.00  0.00    +0.000 C 
ATOM     13  C   UNL     1     -46.564 -16.281 -24.743  0.00  0.00    +0.000 C 
ENDBRANCH   7  13
ENDBRANCH   1   8
BRANCH   2  14
ATOM     14  S   UNL     1     -42.803 -20.707 -23.370  0.00  0.00    +0.000 S 
BRANCH  14  15
ATOM     15  C   UNL     1     -41.390 -19.845 -22.617  0.00  0.00    +0.000 C 
BRANCH  15  16
ATOM     16  C   UNL     1     -41.717 -19.453 -21.220  0.00  0.00    +0.000 C 
ATOM     17  N   UNL     1     -42.854 -20.021 -20.570  0.00  0.00    +0.000 NA
ATOM     18  O   UNL     1     -40.991 -18.613 -20.624  0.00  0.00    +0.000 OA
BRANCH  17  19
ATOM     19  C   UNL     1     -43.215 -19.672 -19.205  0.00  0.00    +0.000 C 
BRANCH  19  20
ATOM     20  C   UNL     1     -44.366 -18.730 -19.216  0.00  0.00    +0.000 A 
ATOM     21  C   UNL     1     -45.208 -16.533 -18.889  0.00  0.00    +0.000 A 
ATOM     22  C   UNL     1     -46.506 -16.964 -19.175  0.00  0.00    +0.000 A 
ATOM     23  C   UNL     1     -46.724 -18.308 -19.481  0.00  0.00    +0.000 A 
ATOM     24  C   UNL     1     -45.652 -19.202 -19.500  0.00  0.00    +0.000 A 
ATOM     25  N   UNL     1     -44.174 -17.417 -18.912  0.00  0.00    +0.000 NA
ENDBRANCH  19  20
ENDBRANCH  17  19
ENDBRANCH  15  16
ENDBRANCH  14  15
ENDBRANCH   2  14
TORSDOF 7
ENDMDL
MODEL 3
REMARK VINA RESULT:      -5.4      7.455     10.189
REMARK  Name = ZINC000065307388 ZINC65307388 ChemDiv-P103-1197 MolPort-010-961-951 PubChem-53200924
REMARK  7 active torsions:
REMARK  status: ('A' for Active; 'I' for Inactive)
REMARK    1  A    between atoms: C_2  and  C_3
REMARK    2  A    between atoms: C_4  and  C_5
REMARK    3  A    between atoms: C_6  and  S_25
REMARK    4  A    between atoms: C_7  and  C_8
REMARK    5  A    between atoms: C_7  and  S_25
REMARK    6  A    between atoms: C_9  and  C_10
REMARK    7  A    between atoms: C_9  and  N_20
REMARK                            x       y       z     vdW  Elec       q    Type
REMARK                         _______ _______ _______ _____ _____    ______ ____
ROOT
ATOM      1  C   UNL     1     -46.250  -9.368 -26.717  0.00  0.00    +0.000 A 
ATOM      2  C   UNL     1     -46.620  -8.267 -27.531  0.00  0.00    +0.000 A 
ATOM      3  C   UNL     1     -45.859  -6.739 -25.869  0.00  0.00    +0.000 A 
ATOM      4  C   UNL     1     -45.484  -7.788 -25.035  0.00  0.00    +0.000 A 
ATOM      5  C   UNL     1     -45.682  -9.098 -25.464  0.00  0.00    +0.000 A 
ATOM      6  N   UNL     1     -46.411  -6.998 -27.081  0.00  0.00    +0.000 NA
ENDROOT
BRANCH   1   8
ATOM      7  C   UNL     1     -46.139 -12.662 -27.987  0.00  0.00    +0.000 A 
ATOM      8  C   UNL     1     -46.426 -10.791 -27.100  0.00  0.00    +0.000 A 
ATOM      9  N   UNL     1     -45.588 -11.435 -27.945  0.00  0.00    +0.000 NA
ATOM     10  N   UNL     1     -47.419 -11.594 -26.665  0.00  0.00    +0.000 NA
ATOM     11  O   UNL     1     -47.206 -12.739 -27.233  0.00  0.00    +0.000 OA
BRANCH   7  13
ATOM     12  C   UNL     1     -44.751 -14.694 -27.908  0.00  0.00    +0.000 C 
ATOM     13  C   UNL     1     -45.590 -13.790 -28.789  0.00  0.00    +0.000 C 
ENDBRANCH   7  13
ENDBRANCH   1   8
BRANCH   2  14
ATOM     14  S   UNL     1     -47.359  -8.449 -29.156  0.00  0.00    +0.000 S 
BRANCH  14  15
ATOM     15  C   UNL     1     -46.034  -7.493 -29.951  0.00  0.00    +0.000 C 
BRANCH  15  16
ATOM     16  C   UNL     1     -46.593  -6.664 -31.053  0.00  0.00    +0.000 C 
ATOM     17  N   UNL     1     -46.503  -5.240 -30.987  0.00  0.00    +0.000 NA
ATOM     18  O   UNL     1     -47.152  -7.226 -32.032  0.00  0.00    +0.000 OA
BRANCH  17  19
ATOM     19  C   UNL     1     -47.032  -4.386 -32.038  0.00  0.00    +0.000 C 
BRANCH  19  20
ATOM     20  C   UNL     1     -46.109  -3.243 -32.267  0.00  0.00    +0.000 A 
ATOM     21  C   UNL     1     -44.676  -2.040 -33.731  0.00  0.00    +0.000 A 
ATOM     22  C   UNL     1     -44.339  -1.152 -32.707  0.00  0.00    +0.000 A 
ATOM     23  C   UNL     1     -44.903  -1.327 -31.442  0.00  0.00    +0.000 A 
ATOM     24  C   UNL     1     -45.791  -2.380 -31.214  0.00  0.00    +0.000 A 
ATOM     25  N   UNL     1     -45.543  -3.061 -33.492  0.00  0.00    +0.000 NA
ENDBRANCH  19  20
ENDBRANCH  17  19
ENDBRANCH  15  16
ENDBRANCH  14  15
ENDBRANCH   2  14
TORSDOF 7
ENDMDL
