MODEL 1
REMARK VINA RESULT:      -7.2      0.000      0.000
REMARK  Name = ZINC000096181258 ZINC96181258 PubChem-97457130
REMARK  4 active torsions:
REMARK  status: ('A' for Active; 'I' for Inactive)
REMARK    1  A    between atoms: C_5  and  C_8
REMARK    2  A    between atoms: C_9  and  C_13
REMARK    3  A    between atoms: C_14  and  C_15
REMARK    4  A    between atoms: C_14  and  N_24
REMARK                            x       y       z     vdW  Elec       q    Type
REMARK                         _______ _______ _______ _____ _____    ______ ____
ROOT
ATOM      1  C   UNL     1     -46.460  -6.212 -27.877  0.00  0.00    +0.000 C 
ATOM      2  C   UNL     1     -45.257  -5.689 -28.685  0.00  0.00    +0.000 C 
ATOM      3  C   UNL     1     -44.228  -6.825 -28.780  0.00  0.00    +0.000 C 
ATOM      4  C   UNL     1     -44.848  -7.906 -27.990  0.00  0.00    +0.000 C 
ATOM      5  C   UNL     1     -47.038  -8.494 -26.859  0.00  0.00    +0.000 C 
ATOM      6  O   UNL     1     -44.322  -9.038 -27.823  0.00  0.00    +0.000 OA
ATOM      7  N   UNL     1     -46.104  -7.553 -27.452  0.00  0.00    +0.000 N 
ENDROOT
BRANCH   1  12
ATOM      8  C   UNL     1     -47.526  -2.728 -23.383  0.00  0.00    +0.000 C 
ATOM      9  C   UNL     1     -47.252  -3.630 -24.531  0.00  0.00    +0.000 A 
ATOM     10  C   UNL     1     -47.402  -3.160 -25.839  0.00  0.00    +0.000 A 
ATOM     11  C   UNL     1     -47.145  -4.007 -26.921  0.00  0.00    +0.000 A 
ATOM     12  C   UNL     1     -46.738  -5.327 -26.700  0.00  0.00    +0.000 A 
ATOM     13  C   UNL     1     -46.585  -5.794 -25.385  0.00  0.00    +0.000 A 
ATOM     14  C   UNL     1     -46.842  -4.947 -24.304  0.00  0.00    +0.000 A 
ENDBRANCH   1  12
BRANCH   2  15
ATOM     15  C   UNL     1     -45.690  -5.254 -30.046  0.00  0.00    +0.000 C 
ATOM     16  O   UNL     1     -45.686  -6.088 -30.990  0.00  0.00    +0.000 OA
ATOM     17  N   UNL     1     -46.098  -3.903 -30.273  0.00  0.00    +0.000 NA
BRANCH  17  18
ATOM     18  C   UNL     1     -46.512  -3.433 -31.584  0.00  0.00    +0.000 C 
BRANCH  18  19
ATOM     19  C   UNL     1     -45.467  -2.531 -32.146  0.00  0.00    +0.000 A 
ATOM     20  C   UNL     1     -45.242  -1.284 -31.553  0.00  0.00    +0.000 A 
ATOM     21  C   UNL     1     -44.250  -0.437 -32.053  0.00  0.00    +0.000 A 
ATOM     22  C   UNL     1     -43.474  -0.837 -33.144  0.00  0.00    +0.000 A 
ATOM     23  C   UNL     1     -43.689  -2.086 -33.735  0.00  0.00    +0.000 A 
ATOM     24  C   UNL     1     -44.681  -2.936 -33.237  0.00  0.00    +0.000 A 
ATOM     25  F   UNL     1     -44.875  -4.146 -33.817  0.00  0.00    +0.000 F 
ENDBRANCH  18  19
ENDBRANCH  17  18
ENDBRANCH   2  15
TORSDOF 4
ENDMDL
MODEL 2
REMARK VINA RESULT:      -7.0     10.297     14.558
REMARK  Name = ZINC000096181258 ZINC96181258 PubChem-97457130
REMARK  4 active torsions:
REMARK  status: ('A' for Active; 'I' for Inactive)
REMARK    1  A    between atoms: C_5  and  C_8
REMARK    2  A    between atoms: C_9  and  C_13
REMARK    3  A    between atoms: C_14  and  C_15
REMARK    4  A    between atoms: C_14  and  N_24
REMARK                            x       y       z     vdW  Elec       q    Type
REMARK                         _______ _______ _______ _____ _____    ______ ____
ROOT
ATOM      1  C   UNL     1     -43.969 -16.560 -25.689  0.00  0.00    +0.000 C 
ATOM      2  C   UNL     1     -44.563 -17.920 -26.100  0.00  0.00    +0.000 C 
ATOM      3  C   UNL     1     -43.426 -18.769 -26.687  0.00  0.00    +0.000 C 
ATOM      4  C   UNL     1     -42.267 -17.857 -26.639  0.00  0.00    +0.000 C 
ATOM      5  C   UNL     1     -41.589 -15.602 -25.701  0.00  0.00    +0.000 C 
ATOM      6  O   UNL     1     -41.112 -18.176 -27.025  0.00  0.00    +0.000 OA
ATOM      7  N   UNL     1     -42.578 -16.591 -26.098  0.00  0.00    +0.000 N 
ENDROOT
BRANCH   1  12
ATOM      8  C   UNL     1     -46.855 -12.211 -28.184  0.00  0.00    +0.000 C 
ATOM      9  C   UNL     1     -46.109 -13.329 -27.551  0.00  0.00    +0.000 A 
ATOM     10  C   UNL     1     -46.251 -13.575 -26.182  0.00  0.00    +0.000 A 
ATOM     11  C   UNL     1     -45.550 -14.626 -25.585  0.00  0.00    +0.000 A 
ATOM     12  C   UNL     1     -44.704 -15.434 -26.352  0.00  0.00    +0.000 A 
ATOM     13  C   UNL     1     -44.566 -15.185 -27.727  0.00  0.00    +0.000 A 
ATOM     14  C   UNL     1     -45.268 -14.133 -28.323  0.00  0.00    +0.000 A 
ENDBRANCH   1  12
BRANCH   2  15
ATOM     15  C   UNL     1     -45.177 -18.601 -24.923  0.00  0.00    +0.000 C 
ATOM     16  O   UNL     1     -46.099 -19.441 -25.107  0.00  0.00    +0.000 OA
ATOM     17  N   UNL     1     -44.727 -18.297 -23.601  0.00  0.00    +0.000 NA
BRANCH  17  18
ATOM     18  C   UNL     1     -45.307 -18.925 -22.426  0.00  0.00    +0.000 C 
BRANCH  18  19
ATOM     19  C   UNL     1     -45.633 -17.883 -21.411  0.00  0.00    +0.000 A 
ATOM     20  C   UNL     1     -45.460 -16.533 -21.731  0.00  0.00    +0.000 A 
ATOM     21  C   UNL     1     -45.783 -15.543 -20.799  0.00  0.00    +0.000 A 
ATOM     22  C   UNL     1     -46.289 -15.901 -19.546  0.00  0.00    +0.000 A 
ATOM     23  C   UNL     1     -46.472 -17.249 -19.225  0.00  0.00    +0.000 A 
ATOM     24  C   UNL     1     -46.149 -18.242 -20.155  0.00  0.00    +0.000 A 
ATOM     25  F   UNL     1     -46.337 -19.545 -19.832  0.00  0.00    +0.000 F 
ENDBRANCH  18  19
ENDBRANCH  17  18
ENDBRANCH   2  15
TORSDOF 4
ENDMDL
MODEL 3
REMARK VINA RESULT:      -6.8      3.250      7.282
REMARK  Name = ZINC000096181258 ZINC96181258 PubChem-97457130
REMARK  4 active torsions:
REMARK  status: ('A' for Active; 'I' for Inactive)
REMARK    1  A    between atoms: C_5  and  C_8
REMARK    2  A    between atoms: C_9  and  C_13
REMARK    3  A    between atoms: C_14  and  C_15
REMARK    4  A    between atoms: C_14  and  N_24
REMARK                            x       y       z     vdW  Elec       q    Type
REMARK                         _______ _______ _______ _____ _____    ______ ____
ROOT
ATOM      1  C   UNL     1     -45.015  -4.217 -32.306  0.00  0.00    +0.000 C 
ATOM      2  C   UNL     1     -46.384  -3.695 -31.829  0.00  0.00    +0.000 C 
ATOM      3  C   UNL     1     -47.430  -4.100 -32.877  0.00  0.00    +0.000 C 
ATOM      4  C   UNL     1     -46.624  -4.771 -33.914  0.00  0.00    +0.000 C 
ATOM      5  C   UNL     1     -44.273  -5.630 -34.314  0.00  0.00    +0.000 C 
ATOM      6  O   UNL     1     -47.112  -5.271 -34.962  0.00  0.00    +0.000 OA
ATOM      7  N   UNL     1     -45.247  -4.816 -33.607  0.00  0.00    +0.000 N 
ENDROOT
BRANCH   1  12
ATOM      8  C   UNL     1     -41.113   0.043 -32.612  0.00  0.00    +0.000 C 
ATOM      9  C   UNL     1     -42.121  -1.045 -32.536  0.00  0.00    +0.000 A 
ATOM     10  C   UNL     1     -41.708  -2.369 -32.361  0.00  0.00    +0.000 A 
ATOM     11  C   UNL     1     -42.655  -3.394 -32.290  0.00  0.00    +0.000 A 
ATOM     12  C   UNL     1     -44.019  -3.100 -32.394  0.00  0.00    +0.000 A 
ATOM     13  C   UNL     1     -44.431  -1.770 -32.567  0.00  0.00    +0.000 A 
ATOM     14  C   UNL     1     -43.482  -0.745 -32.638  0.00  0.00    +0.000 A 
ENDBRANCH   1  12
BRANCH   2  15
ATOM     15  C   UNL     1     -46.725  -4.267 -30.493  0.00  0.00    +0.000 C 
ATOM     16  O   UNL     1     -47.464  -3.610 -29.712  0.00  0.00    +0.000 OA
ATOM     17  N   UNL     1     -46.214  -5.544 -30.105  0.00  0.00    +0.000 NA
BRANCH  17  18
ATOM     18  C   UNL     1     -46.508  -6.131 -28.809  0.00  0.00    +0.000 C 
BRANCH  18  19
ATOM     19  C   UNL     1     -45.236  -6.432 -28.095  0.00  0.00    +0.000 A 
ATOM     20  C   UNL     1     -44.014  -6.130 -28.706  0.00  0.00    +0.000 A 
ATOM     21  C   UNL     1     -42.813  -6.385 -28.040  0.00  0.00    +0.000 A 
ATOM     22  C   UNL     1     -42.829  -6.936 -26.756  0.00  0.00    +0.000 A 
ATOM     23  C   UNL     1     -44.047  -7.232 -26.137  0.00  0.00    +0.000 A 
ATOM     24  C   UNL     1     -45.251  -6.979 -26.801  0.00  0.00    +0.000 A 
ATOM     25  F   UNL     1     -46.425  -7.266 -26.187  0.00  0.00    +0.000 F 
ENDBRANCH  18  19
ENDBRANCH  17  18
ENDBRANCH   2  15
TORSDOF 4
ENDMDL
