MODEL 1
REMARK VINA RESULT:      -6.5      0.000      0.000
REMARK  Name = ZINC000031806781
REMARK  3 active torsions:
REMARK  status: ('A' for Active; 'I' for Inactive)
REMARK    1  A    between atoms: C_1  and  C_28
REMARK    2  A    between atoms: C_24  and  O_31
REMARK    3  A    between atoms: C_27  and  O_32
REMARK                            x       y       z     vdW  Elec       q    Type
REMARK                         _______ _______ _______ _____ _____    ______ ____
ROOT
ATOM      1  C   UNL     1     -45.766  -6.243 -28.443  0.00  0.00    +0.000 C 
ATOM      2  S   UNL     1     -47.203  -5.162 -28.723  0.00  0.00    +0.000 S 
ATOM      3  C   UNL     1     -47.417  -5.734 -30.422  0.00  0.00    +0.000 C 
ATOM      4  C   UNL     1     -46.686  -4.835 -31.346  0.00  0.00    +0.000 C 
ATOM      5  O   UNL     1     -47.342  -4.211 -32.218  0.00  0.00    +0.000 OA
ATOM      6  N   UNL     1     -45.265  -4.672 -31.304  0.00  0.00    +0.000 N 
ATOM      7  C   UNL     1     -44.297  -5.183 -30.369  0.00  0.00    +0.000 A 
ATOM      8  C   UNL     1     -44.506  -5.874 -29.177  0.00  0.00    +0.000 A 
ATOM      9  C   UNL     1     -43.227  -6.189 -28.748  0.00  0.00    +0.000 A 
ATOM     10  C   UNL     1     -42.873  -6.941 -27.513  0.00  0.00    +0.000 C 
ATOM     11  N   UNL     1     -42.313  -5.722 -29.618  0.00  0.00    +0.000 NA
ATOM     12  N   UNL     1     -42.965  -5.098 -30.586  0.00  0.00    +0.000 N 
ATOM     13  H   UNL     1     -44.890  -4.125 -32.030  0.00  0.00    +0.000 HD
ATOM     14  C   UNL     1     -42.296  -4.506 -31.708  0.00  0.00    +0.000 A 
ATOM     15  N   UNL     1     -41.177  -5.095 -32.229  0.00  0.00    +0.000 NA
ATOM     16  C   UNL     1     -40.497  -4.541 -33.282  0.00  0.00    +0.000 A 
ATOM     17  N   UNL     1     -40.917  -3.363 -33.835  0.00  0.00    +0.000 NA
ATOM     18  C   UNL     1     -42.017  -2.771 -33.313  0.00  0.00    +0.000 A 
ATOM     19  N   UNL     1     -42.541  -1.596 -33.681  0.00  0.00    +0.000 N 
ATOM     20  C   UNL     1     -43.574  -1.448 -32.806  0.00  0.00    +0.000 A 
ATOM     21  N   UNL     1     -43.698  -2.475 -31.922  0.00  0.00    +0.000 NA
ATOM     22  C   UNL     1     -42.704  -3.300 -32.278  0.00  0.00    +0.000 A 
ATOM     23  H   UNL     1     -42.252  -0.991 -34.403  0.00  0.00    +0.000 HD
ENDROOT
BRANCH   1  28
ATOM     24  C   UNL     1     -46.148  -9.828 -29.609  0.00  0.00    +0.000 A 
ATOM     25  C   UNL     1     -46.621 -10.470 -28.464  0.00  0.00    +0.000 A 
ATOM     26  C   UNL     1     -46.829  -9.747 -27.288  0.00  0.00    +0.000 A 
ATOM     27  C   UNL     1     -46.569  -8.367 -27.238  0.00  0.00    +0.000 A 
ATOM     28  C   UNL     1     -46.094  -7.713 -28.397  0.00  0.00    +0.000 A 
ATOM     29  C   UNL     1     -45.887  -8.451 -29.568  0.00  0.00    +0.000 A 
BRANCH  24  31
ATOM     30  C   UNL     1     -45.882 -11.998 -30.765  0.00  0.00    +0.000 C 
ATOM     31  O   UNL     1     -45.949 -10.579 -30.771  0.00  0.00    +0.000 OA
ENDBRANCH  24  31
BRANCH  27  32
ATOM     32  O   UNL     1     -46.781  -7.646 -26.057  0.00  0.00    +0.000 OA
ATOM     33  C   UNL     1     -47.615  -8.112 -25.005  0.00  0.00    +0.000 C 
ENDBRANCH  27  32
ENDBRANCH   1  28
TORSDOF 3
ENDMDL
MODEL 2
REMARK VINA RESULT:      -6.0      1.216      2.305
REMARK  Name = ZINC000031806781
REMARK  3 active torsions:
REMARK  status: ('A' for Active; 'I' for Inactive)
REMARK    1  A    between atoms: C_1  and  C_28
REMARK    2  A    between atoms: C_24  and  O_31
REMARK    3  A    between atoms: C_27  and  O_32
REMARK                            x       y       z     vdW  Elec       q    Type
REMARK                         _______ _______ _______ _____ _____    ______ ____
ROOT
ATOM      1  C   UNL     1     -45.762  -6.512 -29.027  0.00  0.00    +0.000 C 
ATOM      2  S   UNL     1     -47.284  -5.539 -29.243  0.00  0.00    +0.000 S 
ATOM      3  C   UNL     1     -47.370  -5.895 -31.010  0.00  0.00    +0.000 C 
ATOM      4  C   UNL     1     -46.691  -4.818 -31.769  0.00  0.00    +0.000 C 
ATOM      5  O   UNL     1     -47.368  -4.144 -32.588  0.00  0.00    +0.000 OA
ATOM      6  N   UNL     1     -45.296  -4.533 -31.629  0.00  0.00    +0.000 N 
ATOM      7  C   UNL     1     -44.323  -5.074 -30.717  0.00  0.00    +0.000 A 
ATOM      8  C   UNL     1     -44.513  -5.935 -29.637  0.00  0.00    +0.000 A 
ATOM      9  C   UNL     1     -43.229  -6.187 -29.183  0.00  0.00    +0.000 A 
ATOM     10  C   UNL     1     -42.857  -7.062 -28.038  0.00  0.00    +0.000 C 
ATOM     11  N   UNL     1     -42.330  -5.527 -29.934  0.00  0.00    +0.000 NA
ATOM     12  N   UNL     1     -42.997  -4.841 -30.847  0.00  0.00    +0.000 N 
ATOM     13  H   UNL     1     -44.946  -3.861 -32.256  0.00  0.00    +0.000 HD
ATOM     14  C   UNL     1     -42.343  -4.045 -31.845  0.00  0.00    +0.000 A 
ATOM     15  N   UNL     1     -41.150  -4.455 -32.375  0.00  0.00    +0.000 NA
ATOM     16  C   UNL     1     -40.484  -3.705 -33.309  0.00  0.00    +0.000 A 
ATOM     17  N   UNL     1     -40.993  -2.507 -33.728  0.00  0.00    +0.000 NA
ATOM     18  C   UNL     1     -42.167  -2.092 -33.194  0.00  0.00    +0.000 A 
ATOM     19  N   UNL     1     -42.786  -0.931 -33.435  0.00  0.00    +0.000 N 
ATOM     20  C   UNL     1     -43.865  -0.996 -32.607  0.00  0.00    +0.000 A 
ATOM     21  N   UNL     1     -43.925  -2.139 -31.870  0.00  0.00    +0.000 NA
ATOM     22  C   UNL     1     -42.841  -2.815 -32.276  0.00  0.00    +0.000 A 
ATOM     23  H   UNL     1     -42.527  -0.211 -34.056  0.00  0.00    +0.000 HD
ENDROOT
BRANCH   1  28
ATOM     24  C   UNL     1     -46.640 -10.093 -28.150  0.00  0.00    +0.000 A 
ATOM     25  C   UNL     1     -46.379 -10.768 -29.343  0.00  0.00    +0.000 A 
ATOM     26  C   UNL     1     -45.908 -10.072 -30.457  0.00  0.00    +0.000 A 
ATOM     27  C   UNL     1     -45.687  -8.686 -30.397  0.00  0.00    +0.000 A 
ATOM     28  C   UNL     1     -45.946  -7.999 -29.190  0.00  0.00    +0.000 A 
ATOM     29  C   UNL     1     -46.422  -8.709 -28.082  0.00  0.00    +0.000 A 
BRANCH  24  31
ATOM     30  C   UNL     1     -46.808 -12.191 -26.852  0.00  0.00    +0.000 C 
ATOM     31  O   UNL     1     -47.112 -10.817 -27.052  0.00  0.00    +0.000 OA
ENDBRANCH  24  31
BRANCH  27  32
ATOM     32  O   UNL     1     -45.212  -7.992 -31.516  0.00  0.00    +0.000 OA
ATOM     33  C   UNL     1     -44.125  -8.453 -32.308  0.00  0.00    +0.000 C 
ENDBRANCH  27  32
ENDBRANCH   1  28
TORSDOF 3
ENDMDL
MODEL 3
REMARK VINA RESULT:      -5.9      3.526      7.525
REMARK  Name = ZINC000031806781
REMARK  3 active torsions:
REMARK  status: ('A' for Active; 'I' for Inactive)
REMARK    1  A    between atoms: C_1  and  C_28
REMARK    2  A    between atoms: C_24  and  O_31
REMARK    3  A    between atoms: C_27  and  O_32
REMARK                            x       y       z     vdW  Elec       q    Type
REMARK                         _______ _______ _______ _____ _____    ______ ____
ROOT
ATOM      1  C   UNL     1     -43.949  -6.417 -31.448  0.00  0.00    +0.000 C 
ATOM      2  S   UNL     1     -44.413  -7.236 -33.005  0.00  0.00    +0.000 S 
ATOM      3  C   UNL     1     -46.179  -7.022 -32.697  0.00  0.00    +0.000 C 
ATOM      4  C   UNL     1     -46.716  -8.226 -32.019  0.00  0.00    +0.000 C 
ATOM      5  O   UNL     1     -47.614  -8.889 -32.597  0.00  0.00    +0.000 OA
ATOM      6  N   UNL     1     -46.274  -8.645 -30.724  0.00  0.00    +0.000 N 
ATOM      7  C   UNL     1     -45.217  -8.137 -29.891  0.00  0.00    +0.000 A 
ATOM      8  C   UNL     1     -44.254  -7.173 -30.184  0.00  0.00    +0.000 A 
ATOM      9  C   UNL     1     -43.561  -7.023 -28.993  0.00  0.00    +0.000 A 
ATOM     10  C   UNL     1     -42.420  -6.100 -28.750  0.00  0.00    +0.000 C 
ATOM     11  N   UNL     1     -44.070  -7.837 -28.051  0.00  0.00    +0.000 NA
ATOM     12  N   UNL     1     -45.058  -8.522 -28.604  0.00  0.00    +0.000 N 
ATOM     13  H   UNL     1     -46.775  -9.401 -30.342  0.00  0.00    +0.000 HD
ATOM     14  C   UNL     1     -45.850  -9.464 -27.868  0.00  0.00    +0.000 A 
ATOM     15  N   UNL     1     -46.148  -9.231 -26.554  0.00  0.00    +0.000 NA
ATOM     16  C   UNL     1     -46.878 -10.123 -25.813  0.00  0.00    +0.000 A 
ATOM     17  N   UNL     1     -47.319 -11.291 -26.372  0.00  0.00    +0.000 NA
ATOM     18  C   UNL     1     -47.013 -11.531 -27.669  0.00  0.00    +0.000 A 
ATOM     19  N   UNL     1     -47.306 -12.635 -28.366  0.00  0.00    +0.000 N 
ATOM     20  C   UNL     1     -46.722 -12.385 -29.570  0.00  0.00    +0.000 A 
ATOM     21  N   UNL     1     -46.084 -11.184 -29.635  0.00  0.00    +0.000 NA
ATOM     22  C   UNL     1     -46.299 -10.665 -28.418  0.00  0.00    +0.000 A 
ATOM     23  H   UNL     1     -47.815 -13.428 -28.080  0.00  0.00    +0.000 HD
ENDROOT
BRANCH   1  28
ATOM     24  C   UNL     1     -43.496  -2.702 -32.048  0.00  0.00    +0.000 A 
ATOM     25  C   UNL     1     -44.643  -2.161 -31.467  0.00  0.00    +0.000 A 
ATOM     26  C   UNL     1     -45.587  -2.993 -30.865  0.00  0.00    +0.000 A 
ATOM     27  C   UNL     1     -45.399  -4.385 -30.831  0.00  0.00    +0.000 A 
ATOM     28  C   UNL     1     -44.236  -4.937 -31.414  0.00  0.00    +0.000 A 
ATOM     29  C   UNL     1     -43.299  -4.090 -32.018  0.00  0.00    +0.000 A 
BRANCH  24  31
ATOM     30  C   UNL     1     -42.901  -0.523 -33.054  0.00  0.00    +0.000 C 
ATOM     31  O   UNL     1     -42.569  -1.843 -32.644  0.00  0.00    +0.000 OA
ENDBRANCH  24  31
BRANCH  27  32
ATOM     32  O   UNL     1     -46.346  -5.217 -30.223  0.00  0.00    +0.000 OA
ATOM     33  C   UNL     1     -47.354  -4.730 -29.347  0.00  0.00    +0.000 C 
ENDBRANCH  27  32
ENDBRANCH   1  28
TORSDOF 3
ENDMDL
