MODEL 1
REMARK VINA RESULT:      -6.9      0.000      0.000
REMARK  Name = ZINC000031808027
REMARK  1 active torsions:
REMARK  status: ('A' for Active; 'I' for Inactive)
REMARK    1  A    between atoms: C_7  and  C_24
REMARK                            x       y       z     vdW  Elec       q    Type
REMARK                         _______ _______ _______ _____ _____    ______ ____
ROOT
ATOM      1  C   UNL     1     -47.404  -4.467 -26.215  0.00  0.00    +0.000 C 
ATOM      2  C   UNL     1     -46.935  -4.722 -27.605  0.00  0.00    +0.000 A 
ATOM      3  N   UNL     1     -46.789  -3.753 -28.526  0.00  0.00    +0.000 NA
ATOM      4  N   UNL     1     -46.358  -4.322 -29.639  0.00  0.00    +0.000 N 
ATOM      5  C   UNL     1     -46.189  -5.649 -29.441  0.00  0.00    +0.000 A 
ATOM      6  C   UNL     1     -46.574  -5.949 -28.135  0.00  0.00    +0.000 A 
ATOM      7  C   UNL     1     -46.568  -7.238 -27.360  0.00  0.00    +0.000 C 
ATOM      8  S   UNL     1     -46.836  -8.742 -28.349  0.00  0.00    +0.000 S 
ATOM      9  C   UNL     1     -45.200  -8.649 -29.114  0.00  0.00    +0.000 C 
ATOM     10  C   UNL     1     -45.282  -7.899 -30.390  0.00  0.00    +0.000 C 
ATOM     11  O   UNL     1     -44.967  -8.492 -31.453  0.00  0.00    +0.000 OA
ATOM     12  N   UNL     1     -45.664  -6.522 -30.454  0.00  0.00    +0.000 N 
ATOM     13  H   UNL     1     -45.549  -6.104 -31.339  0.00  0.00    +0.000 HD
ATOM     14  C   UNL     1     -46.065  -3.571 -30.827  0.00  0.00    +0.000 A 
ATOM     15  N   UNL     1     -45.503  -2.328 -30.730  0.00  0.00    +0.000 NA
ATOM     16  C   UNL     1     -45.238  -1.572 -31.842  0.00  0.00    +0.000 A 
ATOM     17  N   UNL     1     -45.545  -2.041 -33.088  0.00  0.00    +0.000 NA
ATOM     18  C   UNL     1     -46.115  -3.266 -33.186  0.00  0.00    +0.000 A 
ATOM     19  N   UNL     1     -46.536  -3.863 -34.308  0.00  0.00    +0.000 N 
ATOM     20  C   UNL     1     -47.075  -5.021 -33.838  0.00  0.00    +0.000 A 
ATOM     21  N   UNL     1     -47.007  -5.152 -32.485  0.00  0.00    +0.000 NA
ATOM     22  C   UNL     1     -46.384  -4.028 -32.106  0.00  0.00    +0.000 A 
ATOM     23  H   UNL     1     -46.471  -3.546 -35.238  0.00  0.00    +0.000 HD
ENDROOT
BRANCH   7  24
ATOM     24  C   UNL     1     -45.459  -7.351 -26.347  0.00  0.00    +0.000 A 
ATOM     25  C   UNL     1     -44.145  -6.991 -26.688  0.00  0.00    +0.000 A 
ATOM     26  C   UNL     1     -43.115  -7.092 -25.750  0.00  0.00    +0.000 A 
ATOM     27  C   UNL     1     -43.389  -7.553 -24.462  0.00  0.00    +0.000 A 
ATOM     28  C   UNL     1     -44.692  -7.912 -24.111  0.00  0.00    +0.000 A 
ATOM     29  C   UNL     1     -45.728  -7.813 -25.045  0.00  0.00    +0.000 A 
ATOM     30 CL   UNL     1     -47.351  -8.271 -24.549  0.00  0.00    +0.000 Cl
ENDBRANCH   7  24
TORSDOF 1
ENDMDL
MODEL 2
REMARK VINA RESULT:      -6.6      4.863      7.052
REMARK  Name = ZINC000031808027
REMARK  1 active torsions:
REMARK  status: ('A' for Active; 'I' for Inactive)
REMARK    1  A    between atoms: C_7  and  C_24
REMARK                            x       y       z     vdW  Elec       q    Type
REMARK                         _______ _______ _______ _____ _____    ______ ____
ROOT
ATOM      1  C   UNL     1     -47.122  -3.406 -33.709  0.00  0.00    +0.000 C 
ATOM      2  C   UNL     1     -46.460  -4.739 -33.762  0.00  0.00    +0.000 A 
ATOM      3  N   UNL     1     -46.777  -5.688 -34.661  0.00  0.00    +0.000 NA
ATOM      4  N   UNL     1     -46.003  -6.734 -34.427  0.00  0.00    +0.000 N 
ATOM      5  C   UNL     1     -45.161  -6.462 -33.404  0.00  0.00    +0.000 A 
ATOM      6  C   UNL     1     -45.443  -5.181 -32.933  0.00  0.00    +0.000 A 
ATOM      7  C   UNL     1     -44.813  -4.351 -31.849  0.00  0.00    +0.000 C 
ATOM      8  S   UNL     1     -44.126  -5.290 -30.449  0.00  0.00    +0.000 S 
ATOM      9  C   UNL     1     -42.739  -5.919 -31.424  0.00  0.00    +0.000 C 
ATOM     10  C   UNL     1     -43.093  -7.230 -32.019  0.00  0.00    +0.000 C 
ATOM     11  O   UNL     1     -42.408  -8.235 -31.701  0.00  0.00    +0.000 OA
ATOM     12  N   UNL     1     -44.153  -7.388 -32.966  0.00  0.00    +0.000 N 
ATOM     13  H   UNL     1     -44.200  -8.278 -33.386  0.00  0.00    +0.000 HD
ATOM     14  C   UNL     1     -46.054  -7.925 -35.226  0.00  0.00    +0.000 A 
ATOM     15  N   UNL     1     -46.269  -7.839 -36.574  0.00  0.00    +0.000 NA
ATOM     16  C   UNL     1     -46.351  -8.958 -37.360  0.00  0.00    +0.000 A 
ATOM     17  N   UNL     1     -46.236 -10.202 -36.809  0.00  0.00    +0.000 NA
ATOM     18  C   UNL     1     -46.037 -10.293 -35.473  0.00  0.00    +0.000 A 
ATOM     19  N   UNL     1     -45.958 -11.417 -34.751  0.00  0.00    +0.000 N 
ATOM     20  C   UNL     1     -45.825 -10.942 -33.483  0.00  0.00    +0.000 A 
ATOM     21  N   UNL     1     -45.825  -9.584 -33.399  0.00  0.00    +0.000 NA
ATOM     22  C   UNL     1     -45.950  -9.205 -34.679  0.00  0.00    +0.000 A 
ATOM     23  H   UNL     1     -45.989 -12.352 -35.060  0.00  0.00    +0.000 HD
ENDROOT
BRANCH   7  24
ATOM     24  C   UNL     1     -43.921  -3.245 -32.351  0.00  0.00    +0.000 A 
ATOM     25  C   UNL     1     -42.869  -3.526 -33.237  0.00  0.00    +0.000 A 
ATOM     26  C   UNL     1     -42.042  -2.502 -33.706  0.00  0.00    +0.000 A 
ATOM     27  C   UNL     1     -42.261  -1.187 -33.294  0.00  0.00    +0.000 A 
ATOM     28  C   UNL     1     -43.306  -0.895 -32.414  0.00  0.00    +0.000 A 
ATOM     29  C   UNL     1     -44.137  -1.915 -31.941  0.00  0.00    +0.000 A 
ATOM     30 CL   UNL     1     -45.442  -1.492 -30.842  0.00  0.00    +0.000 Cl
ENDBRANCH   7  24
TORSDOF 1
ENDMDL
MODEL 3
REMARK VINA RESULT:      -6.5      2.915      3.999
REMARK  Name = ZINC000031808027
REMARK  1 active torsions:
REMARK  status: ('A' for Active; 'I' for Inactive)
REMARK    1  A    between atoms: C_7  and  C_24
REMARK                            x       y       z     vdW  Elec       q    Type
REMARK                         _______ _______ _______ _____ _____    ______ ____
ROOT
ATOM      1  C   UNL     1     -42.613  -6.770 -27.485  0.00  0.00    +0.000 C 
ATOM      2  C   UNL     1     -43.085  -6.124 -28.741  0.00  0.00    +0.000 A 
ATOM      3  N   UNL     1     -42.263  -5.767 -29.743  0.00  0.00    +0.000 NA
ATOM      4  N   UNL     1     -43.006  -5.228 -30.696  0.00  0.00    +0.000 N 
ATOM      5  C   UNL     1     -44.309  -5.262 -30.336  0.00  0.00    +0.000 A 
ATOM      6  C   UNL     1     -44.397  -5.820 -29.062  0.00  0.00    +0.000 A 
ATOM      7  C   UNL     1     -45.578  -6.133 -28.184  0.00  0.00    +0.000 C 
ATOM      8  S   UNL     1     -47.006  -5.021 -28.376  0.00  0.00    +0.000 S 
ATOM      9  C   UNL     1     -47.437  -5.692 -29.998  0.00  0.00    +0.000 C 
ATOM     10  C   UNL     1     -46.783  -4.896 -31.064  0.00  0.00    +0.000 C 
ATOM     11  O   UNL     1     -47.512  -4.304 -31.900  0.00  0.00    +0.000 OA
ATOM     12  N   UNL     1     -45.363  -4.808 -31.202  0.00  0.00    +0.000 N 
ATOM     13  H   UNL     1     -45.056  -4.362 -32.025  0.00  0.00    +0.000 HD
ATOM     14  C   UNL     1     -42.452  -4.761 -31.935  0.00  0.00    +0.000 A 
ATOM     15  N   UNL     1     -41.418  -5.436 -32.522  0.00  0.00    +0.000 NA
ATOM     16  C   UNL     1     -40.848  -5.001 -33.690  0.00  0.00    +0.000 A 
ATOM     17  N   UNL     1     -41.292  -3.859 -34.294  0.00  0.00    +0.000 NA
ATOM     18  C   UNL     1     -42.307  -3.180 -33.708  0.00  0.00    +0.000 A 
ATOM     19  N   UNL     1     -42.833  -2.020 -34.118  0.00  0.00    +0.000 N 
ATOM     20  C   UNL     1     -43.754  -1.758 -33.151  0.00  0.00    +0.000 A 
ATOM     21  N   UNL     1     -43.807  -2.699 -32.170  0.00  0.00    +0.000 NA
ATOM     22  C   UNL     1     -42.885  -3.591 -32.560  0.00  0.00    +0.000 A 
ATOM     23  H   UNL     1     -42.611  -1.490 -34.918  0.00  0.00    +0.000 HD
ENDROOT
BRANCH   7  24
ATOM     24  C   UNL     1     -45.935  -7.595 -28.119  0.00  0.00    +0.000 A 
ATOM     25  C   UNL     1     -45.754  -8.422 -29.239  0.00  0.00    +0.000 A 
ATOM     26  C   UNL     1     -46.082  -9.779 -29.180  0.00  0.00    +0.000 A 
ATOM     27  C   UNL     1     -46.592 -10.321 -28.000  0.00  0.00    +0.000 A 
ATOM     28  C   UNL     1     -46.774  -9.509 -26.879  0.00  0.00    +0.000 A 
ATOM     29  C   UNL     1     -46.448  -8.150 -26.931  0.00  0.00    +0.000 A 
ATOM     30 CL   UNL     1     -46.689  -7.174 -25.489  0.00  0.00    +0.000 Cl
ENDBRANCH   7  24
TORSDOF 1
ENDMDL
