MODEL 1
REMARK VINA RESULT:      -7.1      0.000      0.000
REMARK  Name = ZINC000004257540
REMARK  8 active torsions:
REMARK  status: ('A' for Active; 'I' for Inactive)
REMARK    1  A    between atoms: C_6  and  O_23
REMARK    2  A    between atoms: C_11  and  C_12
REMARK    3  A    between atoms: O_23  and  C_24
REMARK    4  A    between atoms: C_26  and  C_36
REMARK    5  A    between atoms: C_27  and  O_28
REMARK    6  A    between atoms: C_29  and  O_30
REMARK    7  A    between atoms: C_31  and  O_32
REMARK    8  A    between atoms: C_36  and  O_37
REMARK                            x       y       z     vdW  Elec       q    Type
REMARK                         _______ _______ _______ _____ _____    ______ ____
ROOT
ATOM      1  O   UNL     1     -43.500 -10.065 -28.043  0.00  0.00    +0.000 OA
ATOM      2  C   UNL     1     -44.535  -9.905 -28.747  0.00  0.00    +0.000 A 
ATOM      3  C   UNL     1     -44.789  -8.656 -29.331  0.00  0.00    +0.000 A 
ATOM      4  C   UNL     1     -43.921  -7.570 -29.153  0.00  0.00    +0.000 A 
ATOM      5  C   UNL     1     -44.203  -6.339 -29.752  0.00  0.00    +0.000 A 
ATOM      6  C   UNL     1     -45.357  -6.180 -30.537  0.00  0.00    +0.000 A 
ATOM      7  C   UNL     1     -46.224  -7.262 -30.714  0.00  0.00    +0.000 A 
ATOM      8  C   UNL     1     -45.948  -8.496 -30.119  0.00  0.00    +0.000 A 
ATOM      9  O   UNL     1     -46.781  -9.513 -30.297  0.00  0.00    +0.000 OA
ATOM     10  C   UNL     1     -46.572 -10.708 -29.757  0.00  0.00    +0.000 A 
ATOM     11  C   UNL     1     -45.446 -10.969 -28.956  0.00  0.00    +0.000 A 
ENDROOT
BRANCH  11  12
ATOM     12  C   UNL     1     -45.273 -12.337 -28.380  0.00  0.00    +0.000 A 
ATOM     13  C   UNL     1     -44.712 -13.362 -29.160  0.00  0.00    +0.000 A 
ATOM     14  C   UNL     1     -44.523 -14.642 -28.635  0.00  0.00    +0.000 A 
ATOM     15  C   UNL     1     -44.897 -14.928 -27.320  0.00  0.00    +0.000 A 
ATOM     16  C   UNL     1     -45.527 -13.929 -26.545  0.00  0.00    +0.000 A 
ATOM     17  C   UNL     1     -45.681 -12.644 -27.072  0.00  0.00    +0.000 A 
ATOM     18  O   UNL     1     -46.045 -14.194 -25.273  0.00  0.00    +0.000 OA
ATOM     19  C   UNL     1     -46.577 -15.468 -24.924  0.00  0.00    +0.000 C 
ATOM     20  C   UNL     1     -45.487 -16.462 -24.541  0.00  0.00    +0.000 C 
ATOM     21  C   UNL     1     -44.253 -16.375 -25.431  0.00  0.00    +0.000 C 
ATOM     22  O   UNL     1     -44.594 -16.191 -26.801  0.00  0.00    +0.000 OA
ENDBRANCH  11  12
BRANCH   6  23
ATOM     23  O   UNL     1     -45.665  -4.960 -31.147  0.00  0.00    +0.000 OA
BRANCH  23  24
ATOM     24  C   UNL     1     -44.752  -3.866 -31.208  0.00  0.00    +0.000 C 
ATOM     25  O   UNL     1     -43.814  -4.088 -32.239  0.00  0.00    +0.000 OA
ATOM     26  C   UNL     1     -42.889  -3.034 -32.166  0.00  0.00    +0.000 C 
ATOM     27  C   UNL     1     -43.506  -1.728 -32.720  0.00  0.00    +0.000 C 
ATOM     28  C   UNL     1     -45.043  -1.748 -32.621  0.00  0.00    +0.000 C 
ATOM     29  C   UNL     1     -45.496  -2.513 -31.370  0.00  0.00    +0.000 C 
BRANCH  27  30
ATOM     30  O   UNL     1     -43.105  -1.471 -34.035  0.00  0.00    +0.000 OA
ATOM     31  H   UNL     1     -43.139  -0.517 -34.204  0.00  0.00    +0.000 HD
ENDBRANCH  27  30
BRANCH  28  32
ATOM     32  O   UNL     1     -45.600  -2.336 -33.763  0.00  0.00    +0.000 OA
ATOM     33  H   UNL     1     -45.911  -1.641 -34.365  0.00  0.00    +0.000 HD
ENDBRANCH  28  32
BRANCH  29  34
ATOM     34  O   UNL     1     -46.885  -2.668 -31.357  0.00  0.00    +0.000 OA
ATOM     35  H   UNL     1     -47.294  -1.888 -30.952  0.00  0.00    +0.000 HD
ENDBRANCH  29  34
BRANCH  26  36
ATOM     36  C   UNL     1     -41.576  -3.416 -32.834  0.00  0.00    +0.000 C 
BRANCH  36  37
ATOM     37  O   UNL     1     -40.621  -2.427 -32.603  0.00  0.00    +0.000 OA
ATOM     38  H   UNL     1     -40.145  -2.622 -31.780  0.00  0.00    +0.000 HD
ENDBRANCH  36  37
ENDBRANCH  26  36
ENDBRANCH  23  24
ENDBRANCH   6  23
TORSDOF 8
ENDMDL
MODEL 2
REMARK VINA RESULT:      -7.0      1.924     11.601
REMARK  Name = ZINC000004257540
REMARK  8 active torsions:
REMARK  status: ('A' for Active; 'I' for Inactive)
REMARK    1  A    between atoms: C_6  and  O_23
REMARK    2  A    between atoms: C_11  and  C_12
REMARK    3  A    between atoms: O_23  and  C_24
REMARK    4  A    between atoms: C_26  and  C_36
REMARK    5  A    between atoms: C_27  and  O_28
REMARK    6  A    between atoms: C_29  and  O_30
REMARK    7  A    between atoms: C_31  and  O_32
REMARK    8  A    between atoms: C_36  and  O_37
REMARK                            x       y       z     vdW  Elec       q    Type
REMARK                         _______ _______ _______ _____ _____    ______ ____
ROOT
ATOM      1  O   UNL     1     -46.797  -8.799 -30.825  0.00  0.00    +0.000 OA
ATOM      2  C   UNL     1     -46.621  -8.747 -29.577  0.00  0.00    +0.000 A 
ATOM      3  C   UNL     1     -46.654  -9.930 -28.823  0.00  0.00    +0.000 A 
ATOM      4  C   UNL     1     -46.882 -11.177 -29.420  0.00  0.00    +0.000 A 
ATOM      5  C   UNL     1     -46.907 -12.336 -28.639  0.00  0.00    +0.000 A 
ATOM      6  C   UNL     1     -46.704 -12.262 -27.252  0.00  0.00    +0.000 A 
ATOM      7  C   UNL     1     -46.477 -11.018 -26.655  0.00  0.00    +0.000 A 
ATOM      8  C   UNL     1     -46.451  -9.854 -27.429  0.00  0.00    +0.000 A 
ATOM      9  O   UNL     1     -46.235  -8.682 -26.847  0.00  0.00    +0.000 OA
ATOM     10  C   UNL     1     -46.198  -7.544 -27.531  0.00  0.00    +0.000 A 
ATOM     11  C   UNL     1     -46.390  -7.513 -28.923  0.00  0.00    +0.000 A 
ENDROOT
BRANCH  11  12
ATOM     12  C   UNL     1     -46.336  -6.196 -29.628  0.00  0.00    +0.000 A 
ATOM     13  C   UNL     1     -47.517  -5.469 -29.848  0.00  0.00    +0.000 A 
ATOM     14  C   UNL     1     -47.487  -4.227 -30.487  0.00  0.00    +0.000 A 
ATOM     15  C   UNL     1     -46.276  -3.688 -30.925  0.00  0.00    +0.000 A 
ATOM     16  C   UNL     1     -45.088  -4.437 -30.776  0.00  0.00    +0.000 A 
ATOM     17  C   UNL     1     -45.128  -5.664 -30.107  0.00  0.00    +0.000 A 
ATOM     18  O   UNL     1     -43.869  -4.013 -31.316  0.00  0.00    +0.000 OA
ATOM     19  C   UNL     1     -43.800  -3.253 -32.518  0.00  0.00    +0.000 C 
ATOM     20  C   UNL     1     -44.058  -1.770 -32.278  0.00  0.00    +0.000 C 
ATOM     21  C   UNL     1     -45.180  -1.508 -31.281  0.00  0.00    +0.000 C 
ATOM     22  O   UNL     1     -46.277  -2.397 -31.464  0.00  0.00    +0.000 OA
ENDBRANCH  11  12
BRANCH   6  23
ATOM     23  O   UNL     1     -46.724 -13.404 -26.446  0.00  0.00    +0.000 OA
BRANCH  23  24
ATOM     24  C   UNL     1     -45.784 -13.636 -25.400  0.00  0.00    +0.000 C 
ATOM     25  O   UNL     1     -46.464 -13.763 -24.169  0.00  0.00    +0.000 OA
ATOM     26  C   UNL     1     -45.474 -13.876 -23.179  0.00  0.00    +0.000 C 
ATOM     27  C   UNL     1     -44.832 -15.283 -23.210  0.00  0.00    +0.000 C 
ATOM     28  C   UNL     1     -44.965 -15.931 -24.602  0.00  0.00    +0.000 C 
ATOM     29  C   UNL     1     -44.886 -14.865 -25.705  0.00  0.00    +0.000 C 
BRANCH  27  30
ATOM     30  O   UNL     1     -45.360 -16.126 -22.227  0.00  0.00    +0.000 OA
ATOM     31  H   UNL     1     -45.794 -16.884 -22.649  0.00  0.00    +0.000 HD
ENDBRANCH  27  30
BRANCH  28  32
ATOM     32  O   UNL     1     -46.174 -16.628 -24.704  0.00  0.00    +0.000 OA
ATOM     33  H   UNL     1     -46.261 -16.995 -25.598  0.00  0.00    +0.000 HD
ENDBRANCH  28  32
BRANCH  29  34
ATOM     34  O   UNL     1     -45.160 -15.424 -26.956  0.00  0.00    +0.000 OA
ATOM     35  H   UNL     1     -44.356 -15.831 -27.312  0.00  0.00    +0.000 HD
ENDBRANCH  29  34
BRANCH  26  36
ATOM     36  C   UNL     1     -46.025 -13.490 -21.814  0.00  0.00    +0.000 C 
BRANCH  36  37
ATOM     37  O   UNL     1     -47.204 -14.192 -21.564  0.00  0.00    +0.000 OA
ATOM     38  H   UNL     1     -46.990 -15.065 -21.199  0.00  0.00    +0.000 HD
ENDBRANCH  36  37
ENDBRANCH  26  36
ENDBRANCH  23  24
ENDBRANCH   6  23
TORSDOF 8
ENDMDL
MODEL 3
REMARK VINA RESULT:      -7.0      4.463     14.122
REMARK  Name = ZINC000004257540
REMARK  8 active torsions:
REMARK  status: ('A' for Active; 'I' for Inactive)
REMARK    1  A    between atoms: C_6  and  O_23
REMARK    2  A    between atoms: C_11  and  C_12
REMARK    3  A    between atoms: O_23  and  C_24
REMARK    4  A    between atoms: C_26  and  C_36
REMARK    5  A    between atoms: C_27  and  O_28
REMARK    6  A    between atoms: C_29  and  O_30
REMARK    7  A    between atoms: C_31  and  O_32
REMARK    8  A    between atoms: C_36  and  O_37
REMARK                            x       y       z     vdW  Elec       q    Type
REMARK                         _______ _______ _______ _____ _____    ______ ____
ROOT
ATOM      1  O   UNL     1     -46.630 -14.024 -25.131  0.00  0.00    +0.000 OA
ATOM      2  C   UNL     1     -45.793 -14.749 -25.735  0.00  0.00    +0.000 A 
ATOM      3  C   UNL     1     -45.340 -15.933 -25.134  0.00  0.00    +0.000 A 
ATOM      4  C   UNL     1     -45.793 -16.336 -23.870  0.00  0.00    +0.000 A 
ATOM      5  C   UNL     1     -45.322 -17.523 -23.301  0.00  0.00    +0.000 A 
ATOM      6  C   UNL     1     -44.394 -18.321 -23.990  0.00  0.00    +0.000 A 
ATOM      7  C   UNL     1     -43.942 -17.919 -25.250  0.00  0.00    +0.000 A 
ATOM      8  C   UNL     1     -44.407 -16.734 -25.825  0.00  0.00    +0.000 A 
ATOM      9  O   UNL     1     -43.968 -16.366 -27.022  0.00  0.00    +0.000 OA
ATOM     10  C   UNL     1     -44.374 -15.252 -27.619  0.00  0.00    +0.000 A 
ATOM     11  C   UNL     1     -45.301 -14.387 -27.012  0.00  0.00    +0.000 A 
ENDROOT
BRANCH  11  12
ATOM     12  C   UNL     1     -45.715 -13.149 -27.741  0.00  0.00    +0.000 A 
ATOM     13  C   UNL     1     -46.612 -13.235 -28.818  0.00  0.00    +0.000 A 
ATOM     14  C   UNL     1     -47.027 -12.089 -29.500  0.00  0.00    +0.000 A 
ATOM     15  C   UNL     1     -46.549 -10.832 -29.124  0.00  0.00    +0.000 A 
ATOM     16  C   UNL     1     -45.592 -10.734 -28.090  0.00  0.00    +0.000 A 
ATOM     17  C   UNL     1     -45.210 -11.885 -27.396  0.00  0.00    +0.000 A 
ATOM     18  O   UNL     1     -44.976  -9.522 -27.761  0.00  0.00    +0.000 OA
ATOM     19  C   UNL     1     -44.723  -8.515 -28.735  0.00  0.00    +0.000 C 
ATOM     20  C   UNL     1     -45.954  -7.660 -29.013  0.00  0.00    +0.000 C 
ATOM     21  C   UNL     1     -47.245  -8.467 -29.078  0.00  0.00    +0.000 C 
ATOM     22  O   UNL     1     -47.070  -9.702 -29.764  0.00  0.00    +0.000 OA
ENDBRANCH  11  12
BRANCH   6  23
ATOM     23  O   UNL     1     -43.906 -19.513 -23.445  0.00  0.00    +0.000 OA
BRANCH  23  24
ATOM     24  C   UNL     1     -42.799 -19.562 -22.546  0.00  0.00    +0.000 C 
ATOM     25  O   UNL     1     -43.217 -20.096 -21.308  0.00  0.00    +0.000 OA
ATOM     26  C   UNL     1     -42.111 -20.010 -20.447  0.00  0.00    +0.000 C 
ATOM     27  C   UNL     1     -41.062 -21.091 -20.798  0.00  0.00    +0.000 C 
ATOM     28  C   UNL     1     -41.180 -21.530 -22.270  0.00  0.00    +0.000 C 
ATOM     29  C   UNL     1     -41.608 -20.350 -23.155  0.00  0.00    +0.000 C 
BRANCH  27  30
ATOM     30  O   UNL     1     -41.143 -22.200 -19.950  0.00  0.00    +0.000 OA
ATOM     31  H   UNL     1     -40.637 -22.936 -20.329  0.00  0.00    +0.000 HD
ENDBRANCH  27  30
BRANCH  28  32
ATOM     32  O   UNL     1     -42.102 -22.575 -22.397  0.00  0.00    +0.000 OA
ATOM     33  H   UNL     1     -42.054 -23.146 -21.613  0.00  0.00    +0.000 HD
ENDBRANCH  28  32
BRANCH  29  34
ATOM     34  O   UNL     1     -41.867 -20.776 -24.461  0.00  0.00    +0.000 OA
ATOM     35  H   UNL     1     -42.300 -21.643 -24.438  0.00  0.00    +0.000 HD
ENDBRANCH  29  34
BRANCH  26  36
ATOM     36  C   UNL     1     -42.553 -20.043 -18.991  0.00  0.00    +0.000 C 
BRANCH  36  37
ATOM     37  O   UNL     1     -43.525 -21.027 -18.814  0.00  0.00    +0.000 OA
ATOM     38  H   UNL     1     -44.338 -20.622 -18.471  0.00  0.00    +0.000 HD
ENDBRANCH  36  37
ENDBRANCH  26  36
ENDBRANCH  23  24
ENDBRANCH   6  23
TORSDOF 8
ENDMDL
