MODEL 1
REMARK VINA RESULT:      -8.0      0.000      0.000
REMARK  Name = ZINC000013148091 ZINC13148091 PubChem-25726336
REMARK  5 active torsions:
REMARK  status: ('A' for Active; 'I' for Inactive)
REMARK    1  A    between atoms: C_1  and  C_6
REMARK    2  A    between atoms: C_1  and  C_17
REMARK    3  A    between atoms: C_1  and  C_32
REMARK    4  A    between atoms: C_2  and  C_14
REMARK    5  A    between atoms: C_21  and  C_26
REMARK                            x       y       z     vdW  Elec       q    Type
REMARK                         _______ _______ _______ _____ _____    ______ ____
ROOT
ATOM      1  C   UNL     1     -46.456  -9.916 -28.599  0.00  0.00    +0.000 C 
ENDROOT
BRANCH   1   6
ATOM      2  C   UNL     1     -45.809 -13.020 -26.591  0.00  0.00    +0.000 C 
ATOM      3  N   UNL     1     -46.835 -13.077 -27.388  0.00  0.00    +0.000 NA
ATOM      4  C   UNL     1     -46.866 -12.400 -28.649  0.00  0.00    +0.000 C 
ATOM      5  O   UNL     1     -47.756 -12.696 -29.487  0.00  0.00    +0.000 OA
ATOM      6  C   UNL     1     -45.880 -11.302 -28.962  0.00  0.00    +0.000 C 
ATOM      7  C   UNL     1     -44.605 -11.555 -28.202  0.00  0.00    +0.000 C 
ATOM      8  O   UNL     1     -43.518 -11.079 -28.617  0.00  0.00    +0.000 OA
ATOM      9  N   UNL     1     -44.628 -12.315 -26.994  0.00  0.00    +0.000 N 
ATOM     10  H   UNL     1     -43.822 -12.355 -26.430  0.00  0.00    +0.000 HD
BRANCH   2  14
ATOM     11  C   UNL     1     -45.905 -15.081 -22.844  0.00  0.00    +0.000 A 
ATOM     12  C   UNL     1     -45.925 -15.804 -24.038  0.00  0.00    +0.000 A 
ATOM     13  C   UNL     1     -45.889 -15.132 -25.261  0.00  0.00    +0.000 A 
ATOM     14  C   UNL     1     -45.837 -13.731 -25.302  0.00  0.00    +0.000 A 
ATOM     15  C   UNL     1     -45.819 -13.014 -24.098  0.00  0.00    +0.000 A 
ATOM     16  C   UNL     1     -45.850 -13.687 -22.874  0.00  0.00    +0.000 A 
ENDBRANCH   2  14
ENDBRANCH   1   6
BRANCH   1  17
ATOM     17  C   UNL     1     -45.802  -9.288 -27.349  0.00  0.00    +0.000 C 
ATOM     18  C   UNL     1     -46.816  -9.038 -26.273  0.00  0.00    +0.000 C 
ATOM     19  O   UNL     1     -47.396 -10.005 -25.717  0.00  0.00    +0.000 OA
ATOM     20  N   UNL     1     -47.144  -7.703 -25.893  0.00  0.00    +0.000 N 
ATOM     21  C   UNL     1     -46.434  -6.578 -26.422  0.00  0.00    +0.000 C 
ATOM     22  N   UNL     1     -45.425  -6.758 -27.223  0.00  0.00    +0.000 NA
ATOM     23  C   UNL     1     -44.988  -8.055 -27.646  0.00  0.00    +0.000 C 
ATOM     24  O   UNL     1     -43.916  -8.161 -28.296  0.00  0.00    +0.000 OA
ATOM     25  H   UNL     1     -47.876  -7.552 -25.252  0.00  0.00    +0.000 HD
BRANCH  21  26
ATOM     26  C   UNL     1     -46.822  -5.214 -26.018  0.00  0.00    +0.000 A 
ATOM     27  C   UNL     1     -46.972  -4.898 -24.660  0.00  0.00    +0.000 A 
ATOM     28  C   UNL     1     -47.331  -3.605 -24.271  0.00  0.00    +0.000 A 
ATOM     29  C   UNL     1     -47.549  -2.619 -25.235  0.00  0.00    +0.000 A 
ATOM     30  C   UNL     1     -47.405  -2.924 -26.591  0.00  0.00    +0.000 A 
ATOM     31  C   UNL     1     -47.043  -4.218 -26.982  0.00  0.00    +0.000 A 
ENDBRANCH  21  26
ENDBRANCH   1  17
BRANCH   1  32
ATOM     32  C   UNL     1     -46.519  -8.960 -29.766  0.00  0.00    +0.000 A 
ATOM     33  C   UNL     1     -47.445  -7.904 -29.797  0.00  0.00    +0.000 A 
ATOM     34  C   UNL     1     -47.483  -7.031 -30.886  0.00  0.00    +0.000 A 
ATOM     35  C   UNL     1     -46.597  -7.210 -31.951  0.00  0.00    +0.000 A 
ATOM     36  C   UNL     1     -45.670  -8.256 -31.924  0.00  0.00    +0.000 A 
ATOM     37  C   UNL     1     -45.629  -9.128 -30.833  0.00  0.00    +0.000 A 
ATOM     38 CL   UNL     1     -46.651  -6.131 -33.325  0.00  0.00    +0.000 Cl
ENDBRANCH   1  32
TORSDOF 5
ENDMDL
MODEL 2
REMARK VINA RESULT:      -7.5      9.514     12.891
REMARK  Name = ZINC000013148091 ZINC13148091 PubChem-25726336
REMARK  5 active torsions:
REMARK  status: ('A' for Active; 'I' for Inactive)
REMARK    1  A    between atoms: C_1  and  C_6
REMARK    2  A    between atoms: C_1  and  C_17
REMARK    3  A    between atoms: C_1  and  C_32
REMARK    4  A    between atoms: C_2  and  C_14
REMARK    5  A    between atoms: C_21  and  C_26
REMARK                            x       y       z     vdW  Elec       q    Type
REMARK                         _______ _______ _______ _____ _____    ______ ____
ROOT
ATOM      1  C   UNL     1     -44.672 -18.267 -22.711  0.00  0.00    +0.000 C 
ENDROOT
BRANCH   1   6
ATOM      2  C   UNL     1     -43.402 -18.938 -26.179  0.00  0.00    +0.000 C 
ATOM      3  N   UNL     1     -44.595 -19.388 -25.927  0.00  0.00    +0.000 NA
ATOM      4  C   UNL     1     -45.501 -18.713 -25.047  0.00  0.00    +0.000 C 
ATOM      5  O   UNL     1     -46.716 -19.040 -25.043  0.00  0.00    +0.000 OA
ATOM      6  C   UNL     1     -45.007 -17.657 -24.090  0.00  0.00    +0.000 C 
ATOM      7  C   UNL     1     -43.791 -16.992 -24.678  0.00  0.00    +0.000 C 
ATOM      8  O   UNL     1     -43.476 -15.827 -24.324  0.00  0.00    +0.000 OA
ATOM      9  N   UNL     1     -42.976 -17.688 -25.620  0.00  0.00    +0.000 N 
ATOM     10  H   UNL     1     -42.110 -17.306 -25.889  0.00  0.00    +0.000 HD
BRANCH   2  14
ATOM     11  C   UNL     1     -40.815 -21.104 -28.807  0.00  0.00    +0.000 A 
ATOM     12  C   UNL     1     -42.081 -20.710 -29.244  0.00  0.00    +0.000 A 
ATOM     13  C   UNL     1     -42.924 -19.999 -28.388  0.00  0.00    +0.000 A 
ATOM     14  C   UNL     1     -42.510 -19.679 -27.087  0.00  0.00    +0.000 A 
ATOM     15  C   UNL     1     -41.238 -20.081 -26.657  0.00  0.00    +0.000 A 
ATOM     16  C   UNL     1     -40.393 -20.789 -27.515  0.00  0.00    +0.000 A 
ENDBRANCH   2  14
ENDBRANCH   1   6
BRANCH   1  17
ATOM     17  C   UNL     1     -43.159 -18.471 -22.482  0.00  0.00    +0.000 C 
ATOM     18  C   UNL     1     -42.828 -19.922 -22.296  0.00  0.00    +0.000 C 
ATOM     19  O   UNL     1     -42.987 -20.730 -23.247  0.00  0.00    +0.000 OA
ATOM     20  N   UNL     1     -42.358 -20.395 -21.036  0.00  0.00    +0.000 N 
ATOM     21  C   UNL     1     -42.063 -19.496 -19.962  0.00  0.00    +0.000 C 
ATOM     22  N   UNL     1     -42.164 -18.211 -20.137  0.00  0.00    +0.000 NA
ATOM     23  C   UNL     1     -42.596 -17.624 -21.369  0.00  0.00    +0.000 C 
ATOM     24  O   UNL     1     -42.524 -16.377 -21.516  0.00  0.00    +0.000 OA
ATOM     25  H   UNL     1     -42.233 -21.363 -20.902  0.00  0.00    +0.000 HD
BRANCH  21  26
ATOM     26  C   UNL     1     -41.600 -20.032 -18.668  0.00  0.00    +0.000 A 
ATOM     27  C   UNL     1     -41.746 -19.270 -17.499  0.00  0.00    +0.000 A 
ATOM     28  C   UNL     1     -41.317 -19.776 -16.269  0.00  0.00    +0.000 A 
ATOM     29  C   UNL     1     -40.734 -21.043 -16.198  0.00  0.00    +0.000 A 
ATOM     30  C   UNL     1     -40.581 -21.807 -17.357  0.00  0.00    +0.000 A 
ATOM     31  C   UNL     1     -41.012 -21.304 -18.589  0.00  0.00    +0.000 A 
ENDBRANCH  21  26
ENDBRANCH   1  17
BRANCH   1  32
ATOM     32  C   UNL     1     -45.348 -17.566 -21.557  0.00  0.00    +0.000 A 
ATOM     33  C   UNL     1     -45.607 -16.185 -21.592  0.00  0.00    +0.000 A 
ATOM     34  C   UNL     1     -46.236 -15.559 -20.514  0.00  0.00    +0.000 A 
ATOM     35  C   UNL     1     -46.607 -16.308 -19.395  0.00  0.00    +0.000 A 
ATOM     36  C   UNL     1     -46.357 -17.682 -19.357  0.00  0.00    +0.000 A 
ATOM     37  C   UNL     1     -45.730 -18.311 -20.437  0.00  0.00    +0.000 A 
ATOM     38 CL   UNL     1     -47.379 -15.526 -18.035  0.00  0.00    +0.000 Cl
ENDBRANCH   1  32
TORSDOF 5
ENDMDL
MODEL 3
REMARK VINA RESULT:      -7.5      2.748      7.618
REMARK  Name = ZINC000013148091 ZINC13148091 PubChem-25726336
REMARK  5 active torsions:
REMARK  status: ('A' for Active; 'I' for Inactive)
REMARK    1  A    between atoms: C_1  and  C_6
REMARK    2  A    between atoms: C_1  and  C_17
REMARK    3  A    between atoms: C_1  and  C_32
REMARK    4  A    between atoms: C_2  and  C_14
REMARK    5  A    between atoms: C_21  and  C_26
REMARK                            x       y       z     vdW  Elec       q    Type
REMARK                         _______ _______ _______ _____ _____    ______ ____
ROOT
ATOM      1  C   UNL     1     -45.070  -6.801 -30.526  0.00  0.00    +0.000 C 
ENDROOT
BRANCH   1   6
ATOM      2  C   UNL     1     -47.045  -5.214 -27.757  0.00  0.00    +0.000 C 
ATOM      3  N   UNL     1     -47.301  -4.766 -28.951  0.00  0.00    +0.000 NA
ATOM      4  C   UNL     1     -47.244  -5.600 -30.113  0.00  0.00    +0.000 C 
ATOM      5  O   UNL     1     -47.750  -5.193 -31.190  0.00  0.00    +0.000 OA
ATOM      6  C   UNL     1     -46.540  -6.934 -30.074  0.00  0.00    +0.000 C 
ATOM      7  C   UNL     1     -46.610  -7.486 -28.675  0.00  0.00    +0.000 C 
ATOM      8  O   UNL     1     -46.518  -8.724 -28.479  0.00  0.00    +0.000 OA
ATOM      9  N   UNL     1     -46.757  -6.604 -27.561  0.00  0.00    +0.000 N 
ATOM     10  H   UNL     1     -46.657  -6.956 -26.647  0.00  0.00    +0.000 HD
BRANCH   2  14
ATOM     11  C   UNL     1     -47.255  -2.577 -24.396  0.00  0.00    +0.000 A 
ATOM     12  C   UNL     1     -47.065  -3.946 -24.197  0.00  0.00    +0.000 A 
ATOM     13  C   UNL     1     -46.992  -4.806 -25.294  0.00  0.00    +0.000 A 
ATOM     14  C   UNL     1     -47.112  -4.307 -26.599  0.00  0.00    +0.000 A 
ATOM     15  C   UNL     1     -47.305  -2.931 -26.788  0.00  0.00    +0.000 A 
ATOM     16  C   UNL     1     -47.373  -2.070 -25.690  0.00  0.00    +0.000 A 
ENDBRANCH   2  14
ENDBRANCH   1   6
BRANCH   1  17
ATOM     17  C   UNL     1     -44.514  -8.079 -31.191  0.00  0.00    +0.000 C 
ATOM     18  C   UNL     1     -45.618  -9.025 -31.556  0.00  0.00    +0.000 C 
ATOM     19  O   UNL     1     -46.458  -8.703 -32.436  0.00  0.00    +0.000 OA
ATOM     20  N   UNL     1     -45.736 -10.281 -30.892  0.00  0.00    +0.000 N 
ATOM     21  C   UNL     1     -44.744 -10.732 -29.963  0.00  0.00    +0.000 C 
ATOM     22  N   UNL     1     -43.675 -10.022 -29.750  0.00  0.00    +0.000 NA
ATOM     23  C   UNL     1     -43.438  -8.762 -30.386  0.00  0.00    +0.000 C 
ATOM     24  O   UNL     1     -42.318  -8.205 -30.251  0.00  0.00    +0.000 OA
ATOM     25  H   UNL     1     -46.518 -10.852 -31.076  0.00  0.00    +0.000 HD
BRANCH  21  26
ATOM     26  C   UNL     1     -44.918 -12.029 -29.281  0.00  0.00    +0.000 A 
ATOM     27  C   UNL     1     -45.981 -12.216 -28.386  0.00  0.00    +0.000 A 
ATOM     28  C   UNL     1     -46.156 -13.445 -27.745  0.00  0.00    +0.000 A 
ATOM     29  C   UNL     1     -45.267 -14.494 -27.987  0.00  0.00    +0.000 A 
ATOM     30  C   UNL     1     -44.202 -14.316 -28.875  0.00  0.00    +0.000 A 
ATOM     31  C   UNL     1     -44.027 -13.088 -29.520  0.00  0.00    +0.000 A 
ENDBRANCH  21  26
ENDBRANCH   1  17
BRANCH   1  32
ATOM     32  C   UNL     1     -44.794  -5.555 -31.334  0.00  0.00    +0.000 A 
ATOM     33  C   UNL     1     -44.380  -4.362 -30.718  0.00  0.00    +0.000 A 
ATOM     34  C   UNL     1     -44.128  -3.223 -31.486  0.00  0.00    +0.000 A 
ATOM     35  C   UNL     1     -44.290  -3.271 -32.873  0.00  0.00    +0.000 A 
ATOM     36  C   UNL     1     -44.696  -4.457 -33.492  0.00  0.00    +0.000 A 
ATOM     37  C   UNL     1     -44.945  -5.598 -32.724  0.00  0.00    +0.000 A 
ATOM     38 CL   UNL     1     -43.992  -1.844 -33.838  0.00  0.00    +0.000 Cl
ENDBRANCH   1  32
TORSDOF 5
ENDMDL
