MODEL 1
REMARK VINA RESULT:      -7.0      0.000      0.000
REMARK  Name = ZINC000031811572
REMARK  1 active torsions:
REMARK  status: ('A' for Active; 'I' for Inactive)
REMARK    1  A    between atoms: C_7  and  C_24
REMARK                            x       y       z     vdW  Elec       q    Type
REMARK                         _______ _______ _______ _____ _____    ______ ____
ROOT
ATOM      1  C   UNL     1     -47.338  -3.929 -33.957  0.00  0.00    +0.000 C 
ATOM      2  C   UNL     1     -46.606  -5.208 -33.744  0.00  0.00    +0.000 A 
ATOM      3  N   UNL     1     -46.782  -6.300 -34.509  0.00  0.00    +0.000 NA
ATOM      4  N   UNL     1     -45.983  -7.247 -34.046  0.00  0.00    +0.000 N 
ATOM      5  C   UNL     1     -45.264  -6.769 -33.004  0.00  0.00    +0.000 A 
ATOM      6  C   UNL     1     -45.654  -5.453 -32.768  0.00  0.00    +0.000 A 
ATOM      7  C   UNL     1     -45.189  -4.441 -31.759  0.00  0.00    +0.000 C 
ATOM      8  S   UNL     1     -44.580  -5.112 -30.182  0.00  0.00    +0.000 S 
ATOM      9  C   UNL     1     -43.074  -5.758 -30.942  0.00  0.00    +0.000 C 
ATOM     10  C   UNL     1     -43.287  -7.167 -31.356  0.00  0.00    +0.000 C 
ATOM     11  O   UNL     1     -42.566  -8.058 -30.837  0.00  0.00    +0.000 OA
ATOM     12  N   UNL     1     -44.250  -7.547 -32.343  0.00  0.00    +0.000 N 
ATOM     13  H   UNL     1     -44.213  -8.493 -32.613  0.00  0.00    +0.000 HD
ATOM     14  C   UNL     1     -45.891  -8.544 -34.652  0.00  0.00    +0.000 A 
ATOM     15  N   UNL     1     -45.995  -8.675 -36.008  0.00  0.00    +0.000 NA
ATOM     16  C   UNL     1     -45.940  -9.903 -36.617  0.00  0.00    +0.000 A 
ATOM     17  N   UNL     1     -45.794 -11.040 -35.873  0.00  0.00    +0.000 NA
ATOM     18  C   UNL     1     -45.704 -10.914 -34.527  0.00  0.00    +0.000 A 
ATOM     19  N   UNL     1     -45.617 -11.909 -33.636  0.00  0.00    +0.000 N 
ATOM     20  C   UNL     1     -45.622 -11.242 -32.450  0.00  0.00    +0.000 A 
ATOM     21  N   UNL     1     -45.714  -9.889 -32.578  0.00  0.00    +0.000 NA
ATOM     22  C   UNL     1     -45.754  -9.717 -33.906  0.00  0.00    +0.000 A 
ATOM     23  H   UNL     1     -45.562 -12.879 -33.798  0.00  0.00    +0.000 HD
ENDROOT
BRANCH   7  24
ATOM     24  C   UNL     1     -44.376  -3.291 -32.304  0.00  0.00    +0.000 A 
ATOM     25  C   UNL     1     -43.457  -3.449 -33.363  0.00  0.00    +0.000 A 
ATOM     26  F   UNL     1     -43.262  -4.655 -33.953  0.00  0.00    +0.000 F 
ATOM     27  C   UNL     1     -42.726  -2.352 -33.827  0.00  0.00    +0.000 A 
ATOM     28  C   UNL     1     -42.898  -1.095 -33.247  0.00  0.00    +0.000 A 
ATOM     29  C   UNL     1     -43.803  -0.930 -32.198  0.00  0.00    +0.000 A 
ATOM     30  C   UNL     1     -44.540  -2.020 -31.727  0.00  0.00    +0.000 A 
ATOM     31  F   UNL     1     -45.415  -1.833 -30.707  0.00  0.00    +0.000 F 
ENDBRANCH   7  24
TORSDOF 1
ENDMDL
MODEL 2
REMARK VINA RESULT:      -6.9      4.709      7.150
REMARK  Name = ZINC000031811572
REMARK  1 active torsions:
REMARK  status: ('A' for Active; 'I' for Inactive)
REMARK    1  A    between atoms: C_7  and  C_24
REMARK                            x       y       z     vdW  Elec       q    Type
REMARK                         _______ _______ _______ _____ _____    ______ ____
ROOT
ATOM      1  C   UNL     1     -47.425  -4.527 -26.217  0.00  0.00    +0.000 C 
ATOM      2  C   UNL     1     -46.960  -4.756 -27.612  0.00  0.00    +0.000 A 
ATOM      3  N   UNL     1     -46.798  -3.769 -28.511  0.00  0.00    +0.000 NA
ATOM      4  N   UNL     1     -46.380  -4.319 -29.640  0.00  0.00    +0.000 N 
ATOM      5  C   UNL     1     -46.238  -5.654 -29.473  0.00  0.00    +0.000 A 
ATOM      6  C   UNL     1     -46.623  -5.976 -28.172  0.00  0.00    +0.000 A 
ATOM      7  C   UNL     1     -46.657  -7.288 -27.440  0.00  0.00    +0.000 C 
ATOM      8  S   UNL     1     -46.936  -8.765 -28.466  0.00  0.00    +0.000 S 
ATOM      9  C   UNL     1     -45.288  -8.669 -29.199  0.00  0.00    +0.000 C 
ATOM     10  C   UNL     1     -45.346  -7.891 -30.462  0.00  0.00    +0.000 C 
ATOM     11  O   UNL     1     -45.020  -8.465 -31.533  0.00  0.00    +0.000 OA
ATOM     12  N   UNL     1     -45.721  -6.511 -30.505  0.00  0.00    +0.000 N 
ATOM     13  H   UNL     1     -45.608  -6.080 -31.382  0.00  0.00    +0.000 HD
ATOM     14  C   UNL     1     -46.072  -3.545 -30.809  0.00  0.00    +0.000 A 
ATOM     15  N   UNL     1     -45.506  -2.307 -30.681  0.00  0.00    +0.000 NA
ATOM     16  C   UNL     1     -45.227  -1.531 -31.775  0.00  0.00    +0.000 A 
ATOM     17  N   UNL     1     -45.525  -1.972 -33.034  0.00  0.00    +0.000 NA
ATOM     18  C   UNL     1     -46.098  -3.192 -33.162  0.00  0.00    +0.000 A 
ATOM     19  N   UNL     1     -46.512  -3.765 -34.299  0.00  0.00    +0.000 N 
ATOM     20  C   UNL     1     -47.061  -4.929 -33.858  0.00  0.00    +0.000 A 
ATOM     21  N   UNL     1     -47.006  -5.088 -32.507  0.00  0.00    +0.000 NA
ATOM     22  C   UNL     1     -46.382  -3.976 -32.100  0.00  0.00    +0.000 A 
ATOM     23  H   UNL     1     -46.437  -3.429 -35.222  0.00  0.00    +0.000 HD
ENDROOT
BRANCH   7  24
ATOM     24  C   UNL     1     -45.621  -7.467 -26.356  0.00  0.00    +0.000 A 
ATOM     25  C   UNL     1     -44.288  -7.028 -26.505  0.00  0.00    +0.000 A 
ATOM     26  F   UNL     1     -43.871  -6.412 -27.639  0.00  0.00    +0.000 F 
ATOM     27  C   UNL     1     -43.367  -7.222 -25.471  0.00  0.00    +0.000 A 
ATOM     28  C   UNL     1     -43.758  -7.851 -24.289  0.00  0.00    +0.000 A 
ATOM     29  C   UNL     1     -45.074  -8.290 -24.135  0.00  0.00    +0.000 A 
ATOM     30  C   UNL     1     -46.003  -8.100 -25.161  0.00  0.00    +0.000 A 
ATOM     31  F   UNL     1     -47.276  -8.534 -24.986  0.00  0.00    +0.000 F 
ENDBRANCH   7  24
TORSDOF 1
ENDMDL
MODEL 3
REMARK VINA RESULT:      -6.7      4.144      7.242
REMARK  Name = ZINC000031811572
REMARK  1 active torsions:
REMARK  status: ('A' for Active; 'I' for Inactive)
REMARK    1  A    between atoms: C_7  and  C_24
REMARK                            x       y       z     vdW  Elec       q    Type
REMARK                         _______ _______ _______ _____ _____    ______ ____
ROOT
ATOM      1  C   UNL     1     -42.831  -6.995 -27.621  0.00  0.00    +0.000 C 
ATOM      2  C   UNL     1     -43.186  -6.220 -28.842  0.00  0.00    +0.000 A 
ATOM      3  N   UNL     1     -42.273  -5.708 -29.687  0.00  0.00    +0.000 NA
ATOM      4  N   UNL     1     -42.927  -5.085 -30.654  0.00  0.00    +0.000 N 
ATOM      5  C   UNL     1     -44.260  -5.214 -30.461  0.00  0.00    +0.000 A 
ATOM      6  C   UNL     1     -44.466  -5.932 -29.284  0.00  0.00    +0.000 A 
ATOM      7  C   UNL     1     -45.725  -6.378 -28.596  0.00  0.00    +0.000 C 
ATOM      8  S   UNL     1     -47.184  -5.320 -28.844  0.00  0.00    +0.000 S 
ATOM      9  C   UNL     1     -47.370  -5.835 -30.565  0.00  0.00    +0.000 C 
ATOM     10  C   UNL     1     -46.647  -4.891 -31.452  0.00  0.00    +0.000 C 
ATOM     11  O   UNL     1     -47.308  -4.250 -32.309  0.00  0.00    +0.000 OA
ATOM     12  N   UNL     1     -45.229  -4.708 -31.396  0.00  0.00    +0.000 N 
ATOM     13  H   UNL     1     -44.857  -4.144 -32.111  0.00  0.00    +0.000 HD
ATOM     14  C   UNL     1     -42.259  -4.448 -31.752  0.00  0.00    +0.000 A 
ATOM     15  N   UNL     1     -41.117  -4.994 -32.268  0.00  0.00    +0.000 NA
ATOM     16  C   UNL     1     -40.438  -4.396 -33.298  0.00  0.00    +0.000 A 
ATOM     17  N   UNL     1     -40.882  -3.217 -33.830  0.00  0.00    +0.000 NA
ATOM     18  C   UNL     1     -42.005  -2.668 -33.311  0.00  0.00    +0.000 A 
ATOM     19  N   UNL     1     -42.557  -1.498 -33.659  0.00  0.00    +0.000 N 
ATOM     20  C   UNL     1     -43.604  -1.400 -32.796  0.00  0.00    +0.000 A 
ATOM     21  N   UNL     1     -43.713  -2.451 -31.938  0.00  0.00    +0.000 NA
ATOM     22  C   UNL     1     -42.692  -3.239 -32.298  0.00  0.00    +0.000 A 
ATOM     23  H   UNL     1     -42.275  -0.869 -34.362  0.00  0.00    +0.000 HD
ENDROOT
BRANCH   7  24
ATOM     24  C   UNL     1     -46.013  -7.859 -28.641  0.00  0.00    +0.000 A 
ATOM     25  C   UNL     1     -45.730  -8.651 -29.775  0.00  0.00    +0.000 A 
ATOM     26  F   UNL     1     -45.173  -8.113 -30.889  0.00  0.00    +0.000 F 
ATOM     27  C   UNL     1     -46.020 -10.018 -29.766  0.00  0.00    +0.000 A 
ATOM     28  C   UNL     1     -46.592 -10.609 -28.639  0.00  0.00    +0.000 A 
ATOM     29  C   UNL     1     -46.877  -9.833 -27.515  0.00  0.00    +0.000 A 
ATOM     30  C   UNL     1     -46.590  -8.465 -27.512  0.00  0.00    +0.000 A 
ATOM     31  F   UNL     1     -46.875  -7.733 -26.406  0.00  0.00    +0.000 F 
ENDBRANCH   7  24
TORSDOF 1
ENDMDL
