MODEL 1
REMARK VINA RESULT:      -7.4      0.000      0.000
REMARK  Name = ZINC000009312448
REMARK  7 active torsions:
REMARK  status: ('A' for Active; 'I' for Inactive)
REMARK    1  A    between atoms: C_1  and  C_12
REMARK    2  A    between atoms: C_2  and  C_19
REMARK    3  A    between atoms: C_3  and  O_4
REMARK    4  A    between atoms: N_7  and  C_31
REMARK    5  A    between atoms: C_9  and  C_16
REMARK    6  A    between atoms: C_19  and  C_21
REMARK    7  A    between atoms: C_31  and  C_32
REMARK                            x       y       z     vdW  Elec       q    Type
REMARK                         _______ _______ _______ _____ _____    ______ ____
ROOT
ATOM      1  C   UNL     1     -43.707 -17.940 -23.043  0.00  0.00    +0.000 C 
ATOM      2  C   UNL     1     -44.584 -18.741 -23.982  0.00  0.00    +0.000 C 
ATOM      3  C   UNL     1     -44.210 -20.020 -23.989  0.00  0.00    +0.000 C 
ATOM      4  C   UNL     1     -43.121 -20.185 -23.061  0.00  0.00    +0.000 C 
ATOM      5  O   UNL     1     -42.496 -21.256 -22.841  0.00  0.00    +0.000 OA
ATOM      6  N   UNL     1     -42.817 -18.939 -22.458  0.00  0.00    +0.000 N 
ENDROOT
BRANCH   1  10
ATOM      7  C   UNL     1     -45.981 -15.984 -19.934  0.00  0.00    +0.000 A 
ATOM      8  C   UNL     1     -46.117 -17.368 -20.149  0.00  0.00    +0.000 A 
ATOM      9  C   UNL     1     -45.393 -18.006 -21.156  0.00  0.00    +0.000 A 
ATOM     10  C   UNL     1     -44.519 -17.272 -21.971  0.00  0.00    +0.000 A 
ATOM     11  C   UNL     1     -44.375 -15.898 -21.764  0.00  0.00    +0.000 A 
ATOM     12  C   UNL     1     -45.100 -15.259 -20.756  0.00  0.00    +0.000 A 
BRANCH   7  14
ATOM     13  C   UNL     1     -47.506 -14.088 -19.434  0.00  0.00    +0.000 C 
ATOM     14  C   UNL     1     -46.754 -15.269 -18.842  0.00  0.00    +0.000 C 
ATOM     15  C   UNL     1     -47.756 -16.219 -18.213  0.00  0.00    +0.000 C 
ATOM     16  C   UNL     1     -45.853 -14.739 -17.735  0.00  0.00    +0.000 C 
ENDBRANCH   7  14
ENDBRANCH   1  10
BRANCH   3  17
ATOM     17  O   UNL     1     -44.739 -21.022 -24.796  0.00  0.00    +0.000 OA
ATOM     18  H   UNL     1     -44.782 -20.901 -25.724  0.00  0.00    +0.000 HD
ENDBRANCH   3  17
BRANCH   2  19
ATOM     19  C   UNL     1     -45.624 -18.143 -24.842  0.00  0.00    +0.000 C 
ATOM     20  O   UNL     1     -46.645 -18.830 -25.116  0.00  0.00    +0.000 OA
BRANCH  19  21
ATOM     21  C   UNL     1     -45.486 -16.793 -25.430  0.00  0.00    +0.000 A 
ATOM     22  C   UNL     1     -46.215 -15.718 -24.894  0.00  0.00    +0.000 A 
ATOM     23  C   UNL     1     -46.116 -14.441 -25.457  0.00  0.00    +0.000 A 
ATOM     24  C   UNL     1     -45.293 -14.233 -26.564  0.00  0.00    +0.000 A 
ATOM     25  C   UNL     1     -44.592 -15.306 -27.130  0.00  0.00    +0.000 A 
ATOM     26  C   UNL     1     -44.682 -16.579 -26.561  0.00  0.00    +0.000 A 
ATOM     27  O   UNL     1     -43.811 -15.085 -28.267  0.00  0.00    +0.000 OA
ATOM     28  C   UNL     1     -43.941 -13.876 -29.019  0.00  0.00    +0.000 C 
ATOM     29  C   UNL     1     -44.128 -12.684 -28.077  0.00  0.00    +0.000 C 
ATOM     30  O   UNL     1     -45.159 -12.960 -27.127  0.00  0.00    +0.000 OA
ENDBRANCH  19  21
ENDBRANCH   2  19
BRANCH   6  31
ATOM     31  C   UNL     1     -41.618 -18.639 -21.690  0.00  0.00    +0.000 C 
BRANCH  31  32
ATOM     32  C   UNL     1     -41.906 -18.741 -20.231  0.00  0.00    +0.000 A 
ATOM     33  C   UNL     1     -42.014 -17.585 -19.456  0.00  0.00    +0.000 A 
ATOM     34  C   UNL     1     -42.319 -17.685 -18.098  0.00  0.00    +0.000 A 
ATOM     35  C   UNL     1     -42.517 -18.950 -17.536  0.00  0.00    +0.000 A 
ATOM     36  N   UNL     1     -42.413 -20.064 -18.309  0.00  0.00    +0.000 NA
ATOM     37  C   UNL     1     -42.117 -19.986 -19.634  0.00  0.00    +0.000 A 
ENDBRANCH  31  32
ENDBRANCH   6  31
TORSDOF 7
ENDMDL
MODEL 2
REMARK VINA RESULT:      -6.6      2.814      5.590
REMARK  Name = ZINC000009312448
REMARK  7 active torsions:
REMARK  status: ('A' for Active; 'I' for Inactive)
REMARK    1  A    between atoms: C_1  and  C_12
REMARK    2  A    between atoms: C_2  and  C_19
REMARK    3  A    between atoms: C_3  and  O_4
REMARK    4  A    between atoms: N_7  and  C_31
REMARK    5  A    between atoms: C_9  and  C_16
REMARK    6  A    between atoms: C_19  and  C_21
REMARK    7  A    between atoms: C_31  and  C_32
REMARK                            x       y       z     vdW  Elec       q    Type
REMARK                         _______ _______ _______ _____ _____    ______ ____
ROOT
ATOM      1  C   UNL     1     -44.696 -16.311 -20.705  0.00  0.00    +0.000 C 
ATOM      2  C   UNL     1     -45.179 -17.746 -20.659  0.00  0.00    +0.000 C 
ATOM      3  C   UNL     1     -46.240 -17.853 -19.859  0.00  0.00    +0.000 C 
ATOM      4  C   UNL     1     -46.568 -16.545 -19.353  0.00  0.00    +0.000 C 
ATOM      5  O   UNL     1     -47.492 -16.280 -18.539  0.00  0.00    +0.000 OA
ATOM      6  N   UNL     1     -45.659 -15.591 -19.875  0.00  0.00    +0.000 N 
ENDROOT
BRANCH   1  10
ATOM      7  C   UNL     1     -44.781 -14.817 -24.757  0.00  0.00    +0.000 A 
ATOM      8  C   UNL     1     -43.553 -15.037 -24.108  0.00  0.00    +0.000 A 
ATOM      9  C   UNL     1     -43.516 -15.511 -22.796  0.00  0.00    +0.000 A 
ATOM     10  C   UNL     1     -44.709 -15.773 -22.106  0.00  0.00    +0.000 A 
ATOM     11  C   UNL     1     -45.934 -15.559 -22.742  0.00  0.00    +0.000 A 
ATOM     12  C   UNL     1     -45.970 -15.084 -24.055  0.00  0.00    +0.000 A 
BRANCH   7  14
ATOM     13  C   UNL     1     -43.755 -13.275 -26.412  0.00  0.00    +0.000 C 
ATOM     14  C   UNL     1     -44.847 -14.306 -26.184  0.00  0.00    +0.000 C 
ATOM     15  C   UNL     1     -44.642 -15.455 -27.153  0.00  0.00    +0.000 C 
ATOM     16  C   UNL     1     -46.181 -13.650 -26.512  0.00  0.00    +0.000 C 
ENDBRANCH   7  14
ENDBRANCH   1  10
BRANCH   3  17
ATOM     17  O   UNL     1     -46.889 -19.035 -19.518  0.00  0.00    +0.000 OA
ATOM     18  H   UNL     1     -47.416 -19.479 -20.153  0.00  0.00    +0.000 HD
ENDBRANCH   3  17
BRANCH   2  19
ATOM     19  C   UNL     1     -44.485 -18.865 -21.325  0.00  0.00    +0.000 C 
ATOM     20  O   UNL     1     -43.899 -19.721 -20.608  0.00  0.00    +0.000 OA
BRANCH  19  21
ATOM     21  C   UNL     1     -44.412 -18.989 -22.797  0.00  0.00    +0.000 A 
ATOM     22  C   UNL     1     -45.592 -18.978 -23.560  0.00  0.00    +0.000 A 
ATOM     23  C   UNL     1     -45.541 -19.121 -24.950  0.00  0.00    +0.000 A 
ATOM     24  C   UNL     1     -44.310 -19.284 -25.586  0.00  0.00    +0.000 A 
ATOM     25  C   UNL     1     -43.131 -19.335 -24.831  0.00  0.00    +0.000 A 
ATOM     26  C   UNL     1     -43.181 -19.180 -23.444  0.00  0.00    +0.000 A 
ATOM     27  O   UNL     1     -41.914 -19.545 -25.484  0.00  0.00    +0.000 OA
ATOM     28  C   UNL     1     -41.879 -19.991 -26.842  0.00  0.00    +0.000 C 
ATOM     29  C   UNL     1     -42.978 -19.300 -27.653  0.00  0.00    +0.000 C 
ATOM     30  O   UNL     1     -44.233 -19.403 -26.977  0.00  0.00    +0.000 OA
ENDBRANCH  19  21
ENDBRANCH   2  19
BRANCH   6  31
ATOM     31  C   UNL     1     -45.486 -14.231 -19.389  0.00  0.00    +0.000 C 
BRANCH  31  32
ATOM     32  C   UNL     1     -44.128 -14.068 -18.797  0.00  0.00    +0.000 A 
ATOM     33  C   UNL     1     -43.135 -13.382 -19.501  0.00  0.00    +0.000 A 
ATOM     34  C   UNL     1     -41.876 -13.202 -18.927  0.00  0.00    +0.000 A 
ATOM     35  C   UNL     1     -41.630 -13.710 -17.648  0.00  0.00    +0.000 A 
ATOM     36  N   UNL     1     -42.612 -14.371 -16.977  0.00  0.00    +0.000 NA
ATOM     37  C   UNL     1     -43.845 -14.555 -17.519  0.00  0.00    +0.000 A 
ENDBRANCH  31  32
ENDBRANCH   6  31
TORSDOF 7
ENDMDL
MODEL 3
REMARK VINA RESULT:      -6.5     11.116     15.025
REMARK  Name = ZINC000009312448
REMARK  7 active torsions:
REMARK  status: ('A' for Active; 'I' for Inactive)
REMARK    1  A    between atoms: C_1  and  C_12
REMARK    2  A    between atoms: C_2  and  C_19
REMARK    3  A    between atoms: C_3  and  O_4
REMARK    4  A    between atoms: N_7  and  C_31
REMARK    5  A    between atoms: C_9  and  C_16
REMARK    6  A    between atoms: C_19  and  C_21
REMARK    7  A    between atoms: C_31  and  C_32
REMARK                            x       y       z     vdW  Elec       q    Type
REMARK                         _______ _______ _______ _____ _____    ______ ____
ROOT
ATOM      1  C   UNL     1     -44.827  -5.736 -31.947  0.00  0.00    +0.000 C 
ATOM      2  C   UNL     1     -45.639  -4.579 -32.493  0.00  0.00    +0.000 C 
ATOM      3  C   UNL     1     -46.371  -4.977 -33.534  0.00  0.00    +0.000 C 
ATOM      4  C   UNL     1     -46.150  -6.385 -33.739  0.00  0.00    +0.000 C 
ATOM      5  O   UNL     1     -46.652  -7.083 -34.660  0.00  0.00    +0.000 OA
ATOM      6  N   UNL     1     -45.236  -6.870 -32.771  0.00  0.00    +0.000 N 
ENDROOT
BRANCH   1  10
ATOM      7  C   UNL     1     -45.690  -6.536 -27.791  0.00  0.00    +0.000 A 
ATOM      8  C   UNL     1     -46.727  -6.526 -28.742  0.00  0.00    +0.000 A 
ATOM      9  C   UNL     1     -46.459  -6.261 -30.085  0.00  0.00    +0.000 A 
ATOM     10  C   UNL     1     -45.146  -5.996 -30.504  0.00  0.00    +0.000 A 
ATOM     11  C   UNL     1     -44.109  -6.004 -29.567  0.00  0.00    +0.000 A 
ATOM     12  C   UNL     1     -44.379  -6.270 -28.223  0.00  0.00    +0.000 A 
BRANCH   7  14
ATOM     13  C   UNL     1     -44.646  -7.101 -25.609  0.00  0.00    +0.000 C 
ATOM     14  C   UNL     1     -45.957  -6.826 -26.326  0.00  0.00    +0.000 C 
ATOM     15  C   UNL     1     -46.626  -5.628 -25.677  0.00  0.00    +0.000 C 
ATOM     16  C   UNL     1     -46.861  -8.033 -26.122  0.00  0.00    +0.000 C 
ENDBRANCH   7  14
ENDBRANCH   1  10
BRANCH   3  17
ATOM     17  O   UNL     1     -47.170  -4.162 -34.329  0.00  0.00    +0.000 OA
ATOM     18  H   UNL     1     -46.803  -3.405 -34.741  0.00  0.00    +0.000 HD
ENDBRANCH   3  17
BRANCH   2  19
ATOM     19  C   UNL     1     -45.529  -3.194 -31.996  0.00  0.00    +0.000 C 
ATOM     20  O   UNL     1     -46.532  -2.677 -31.432  0.00  0.00    +0.000 OA
BRANCH  19  21
ATOM     21  C   UNL     1     -44.308  -2.380 -32.179  0.00  0.00    +0.000 A 
ATOM     22  C   UNL     1     -44.411  -0.987 -32.319  0.00  0.00    +0.000 A 
ATOM     23  C   UNL     1     -43.267  -0.206 -32.521  0.00  0.00    +0.000 A 
ATOM     24  C   UNL     1     -42.014  -0.816 -32.592  0.00  0.00    +0.000 A 
ATOM     25  C   UNL     1     -41.905  -2.210 -32.493  0.00  0.00    +0.000 A 
ATOM     26  C   UNL     1     -43.046  -2.988 -32.279  0.00  0.00    +0.000 A 
ATOM     27  O   UNL     1     -40.647  -2.804 -32.614  0.00  0.00    +0.000 OA
ATOM     28  C   UNL     1     -39.533  -2.062 -33.116  0.00  0.00    +0.000 C 
ATOM     29  C   UNL     1     -39.563  -0.632 -32.574  0.00  0.00    +0.000 C 
ATOM     30  O   UNL     1     -40.856  -0.054 -32.768  0.00  0.00    +0.000 OA
ENDBRANCH  19  21
ENDBRANCH   2  19
BRANCH   6  31
ATOM     31  C   UNL     1     -44.553  -8.154 -32.818  0.00  0.00    +0.000 C 
BRANCH  31  32
ATOM     32  C   UNL     1     -45.059  -9.041 -31.732  0.00  0.00    +0.000 A 
ATOM     33  C   UNL     1     -44.216  -9.419 -30.686  0.00  0.00    +0.000 A 
ATOM     34  C   UNL     1     -44.705 -10.221 -29.653  0.00  0.00    +0.000 A 
ATOM     35  C   UNL     1     -46.042 -10.630 -29.683  0.00  0.00    +0.000 A 
ATOM     36  N   UNL     1     -46.849 -10.246 -30.709  0.00  0.00    +0.000 NA
ATOM     37  C   UNL     1     -46.390  -9.465 -31.723  0.00  0.00    +0.000 A 
ENDBRANCH  31  32
ENDBRANCH   6  31
TORSDOF 7
ENDMDL
