MODEL 1
REMARK VINA RESULT:      -7.0      0.000      0.000
REMARK  Name = ZINC000031811577
REMARK  1 active torsions:
REMARK  status: ('A' for Active; 'I' for Inactive)
REMARK    1  A    between atoms: C_7  and  C_24
REMARK                            x       y       z     vdW  Elec       q    Type
REMARK                         _______ _______ _______ _____ _____    ______ ____
ROOT
ATOM      1  C   UNL     1     -43.541  -7.009 -28.296  0.00  0.00    +0.000 C 
ATOM      2  C   UNL     1     -43.761  -6.022 -29.389  0.00  0.00    +0.000 A 
ATOM      3  N   UNL     1     -42.744  -5.417 -30.025  0.00  0.00    +0.000 NA
ATOM      4  N   UNL     1     -43.250  -4.658 -30.981  0.00  0.00    +0.000 N 
ATOM      5  C   UNL     1     -44.597  -4.801 -31.005  0.00  0.00    +0.000 A 
ATOM      6  C   UNL     1     -44.982  -5.630 -29.944  0.00  0.00    +0.000 A 
ATOM      7  C   UNL     1     -46.372  -6.087 -29.526  0.00  0.00    +0.000 C 
ATOM      8  S   UNL     1     -47.659  -4.861 -29.896  0.00  0.00    +0.000 S 
ATOM      9  C   UNL     1     -47.653  -5.402 -31.614  0.00  0.00    +0.000 C 
ATOM     10  C   UNL     1     -46.782  -4.497 -32.399  0.00  0.00    +0.000 C 
ATOM     11  O   UNL     1     -47.279  -3.888 -33.380  0.00  0.00    +0.000 OA
ATOM     12  N   UNL     1     -45.399  -4.298 -32.089  0.00  0.00    +0.000 N 
ATOM     13  H   UNL     1     -44.916  -3.720 -32.723  0.00  0.00    +0.000 HD
ATOM     14  C   UNL     1     -42.419  -3.885 -31.863  0.00  0.00    +0.000 A 
ATOM     15  N   UNL     1     -41.229  -4.402 -32.298  0.00  0.00    +0.000 NA
ATOM     16  C   UNL     1     -40.386  -3.689 -33.112  0.00  0.00    +0.000 A 
ATOM     17  N   UNL     1     -40.707  -2.418 -33.499  0.00  0.00    +0.000 NA
ATOM     18  C   UNL     1     -41.873  -1.894 -33.055  0.00  0.00    +0.000 A 
ATOM     19  N   UNL     1     -42.332  -0.660 -33.294  0.00  0.00    +0.000 N 
ATOM     20  C   UNL     1     -43.491  -0.634 -32.582  0.00  0.00    +0.000 A 
ATOM     21  N   UNL     1     -43.755  -1.793 -31.918  0.00  0.00    +0.000 NA
ATOM     22  C   UNL     1     -42.718  -2.574 -32.249  0.00  0.00    +0.000 A 
ATOM     23  H   UNL     1     -41.932   0.050 -33.847  0.00  0.00    +0.000 HD
ENDROOT
BRANCH   7  24
ATOM     24  C   UNL     1     -46.473  -6.463 -28.070  0.00  0.00    +0.000 A 
ATOM     25  C   UNL     1     -46.564  -7.822 -27.724  0.00  0.00    +0.000 A 
ATOM     26  F   UNL     1     -46.589  -8.779 -28.685  0.00  0.00    +0.000 F 
ATOM     27  C   UNL     1     -46.659  -8.199 -26.381  0.00  0.00    +0.000 A 
ATOM     28  C   UNL     1     -46.669  -7.228 -25.378  0.00  0.00    +0.000 A 
ATOM     29  C   UNL     1     -46.583  -5.876 -25.714  0.00  0.00    +0.000 A 
ATOM     30  C   UNL     1     -46.487  -5.487 -27.052  0.00  0.00    +0.000 A 
ATOM     31  F   UNL     1     -46.417  -4.166 -27.353  0.00  0.00    +0.000 F 
ENDBRANCH   7  24
TORSDOF 1
ENDMDL
MODEL 2
REMARK VINA RESULT:      -7.0     11.049     14.119
REMARK  Name = ZINC000031811577
REMARK  1 active torsions:
REMARK  status: ('A' for Active; 'I' for Inactive)
REMARK    1  A    between atoms: C_7  and  C_24
REMARK                            x       y       z     vdW  Elec       q    Type
REMARK                         _______ _______ _______ _____ _____    ______ ____
ROOT
ATOM      1  C   UNL     1     -45.100 -18.495 -22.222  0.00  0.00    +0.000 C 
ATOM      2  C   UNL     1     -45.386 -17.034 -22.268  0.00  0.00    +0.000 A 
ATOM      3  N   UNL     1     -45.353 -16.333 -23.413  0.00  0.00    +0.000 NA
ATOM      4  N   UNL     1     -45.717 -15.091 -23.144  0.00  0.00    +0.000 N 
ATOM      5  C   UNL     1     -46.036 -14.987 -21.832  0.00  0.00    +0.000 A 
ATOM      6  C   UNL     1     -45.774 -16.213 -21.206  0.00  0.00    +0.000 A 
ATOM      7  C   UNL     1     -45.946 -16.613 -19.748  0.00  0.00    +0.000 C 
ATOM      8  S   UNL     1     -45.694 -15.228 -18.602  0.00  0.00    +0.000 S 
ATOM      9  C   UNL     1     -47.360 -14.648 -18.968  0.00  0.00    +0.000 C 
ATOM     10  C   UNL     1     -47.284 -13.598 -20.009  0.00  0.00    +0.000 C 
ATOM     11  O   UNL     1     -47.756 -12.461 -19.752  0.00  0.00    +0.000 OA
ATOM     12  N   UNL     1     -46.702 -13.830 -21.296  0.00  0.00    +0.000 N 
ATOM     13  H   UNL     1     -46.768 -13.070 -21.919  0.00  0.00    +0.000 HD
ATOM     14  C   UNL     1     -45.803 -14.083 -24.165  0.00  0.00    +0.000 A 
ATOM     15  N   UNL     1     -46.267 -14.416 -25.409  0.00  0.00    +0.000 NA
ATOM     16  C   UNL     1     -46.334 -13.497 -26.426  0.00  0.00    +0.000 A 
ATOM     17  N   UNL     1     -45.915 -12.212 -26.226  0.00  0.00    +0.000 NA
ATOM     18  C   UNL     1     -45.436 -11.881 -25.004  0.00  0.00    +0.000 A 
ATOM     19  N   UNL     1     -44.946 -10.692 -24.637  0.00  0.00    +0.000 N 
ATOM     20  C   UNL     1     -44.560 -10.915 -23.352  0.00  0.00    +0.000 A 
ATOM     21  N   UNL     1     -44.788 -12.187 -22.924  0.00  0.00    +0.000 NA
ATOM     22  C   UNL     1     -45.355 -12.769 -23.988  0.00  0.00    +0.000 A 
ATOM     23  H   UNL     1     -44.882  -9.862 -25.164  0.00  0.00    +0.000 HD
ENDROOT
BRANCH   7  24
ATOM     24  C   UNL     1     -45.057 -17.753 -19.325  0.00  0.00    +0.000 A 
ATOM     25  C   UNL     1     -45.631 -19.017 -19.105  0.00  0.00    +0.000 A 
ATOM     26  F   UNL     1     -46.967 -19.202 -19.245  0.00  0.00    +0.000 F 
ATOM     27  C   UNL     1     -44.830 -20.093 -18.711  0.00  0.00    +0.000 A 
ATOM     28  C   UNL     1     -43.456 -19.917 -18.530  0.00  0.00    +0.000 A 
ATOM     29  C   UNL     1     -42.879 -18.663 -18.741  0.00  0.00    +0.000 A 
ATOM     30  C   UNL     1     -43.670 -17.582 -19.136  0.00  0.00    +0.000 A 
ATOM     31  F   UNL     1     -43.087 -16.371 -19.324  0.00  0.00    +0.000 F 
ENDBRANCH   7  24
TORSDOF 1
ENDMDL
MODEL 3
REMARK VINA RESULT:      -7.0     15.236     16.624
REMARK  Name = ZINC000031811577
REMARK  1 active torsions:
REMARK  status: ('A' for Active; 'I' for Inactive)
REMARK    1  A    between atoms: C_7  and  C_24
REMARK                            x       y       z     vdW  Elec       q    Type
REMARK                         _______ _______ _______ _____ _____    ______ ____
ROOT
ATOM      1  C   UNL     1     -43.516 -19.456 -19.731  0.00  0.00    +0.000 C 
ATOM      2  C   UNL     1     -43.130 -19.594 -21.163  0.00  0.00    +0.000 A 
ATOM      3  N   UNL     1     -41.999 -20.211 -21.544  0.00  0.00    +0.000 NA
ATOM      4  N   UNL     1     -41.970 -20.235 -22.865  0.00  0.00    +0.000 N 
ATOM      5  C   UNL     1     -43.105 -19.678 -23.352  0.00  0.00    +0.000 A 
ATOM      6  C   UNL     1     -43.862 -19.187 -22.281  0.00  0.00    +0.000 A 
ATOM      7  C   UNL     1     -45.201 -18.465 -22.292  0.00  0.00    +0.000 C 
ATOM      8  S   UNL     1     -45.448 -17.457 -23.782  0.00  0.00    +0.000 S 
ATOM      9  C   UNL     1     -45.887 -18.947 -24.693  0.00  0.00    +0.000 C 
ATOM     10  C   UNL     1     -44.689 -19.440 -25.412  0.00  0.00    +0.000 C 
ATOM     11  O   UNL     1     -44.749 -19.565 -26.662  0.00  0.00    +0.000 OA
ATOM     12  N   UNL     1     -43.474 -19.784 -24.739  0.00  0.00    +0.000 N 
ATOM     13  H   UNL     1     -42.773 -20.157 -25.323  0.00  0.00    +0.000 HD
ATOM     14  C   UNL     1     -40.892 -20.846 -23.594  0.00  0.00    +0.000 A 
ATOM     15  N   UNL     1     -40.322 -21.997 -23.122  0.00  0.00    +0.000 NA
ATOM     16  C   UNL     1     -39.268 -22.597 -23.764  0.00  0.00    +0.000 A 
ATOM     17  N   UNL     1     -38.740 -22.043 -24.895  0.00  0.00    +0.000 NA
ATOM     18  C   UNL     1     -39.287 -20.894 -25.356  0.00  0.00    +0.000 A 
ATOM     19  N   UNL     1     -38.880 -20.189 -26.418  0.00  0.00    +0.000 N 
ATOM     20  C   UNL     1     -39.718 -19.119 -26.401  0.00  0.00    +0.000 A 
ATOM     21  N   UNL     1     -40.612 -19.138 -25.374  0.00  0.00    +0.000 NA
ATOM     22  C   UNL     1     -40.321 -20.281 -24.739  0.00  0.00    +0.000 A 
ATOM     23  H   UNL     1     -38.155 -20.394 -27.053  0.00  0.00    +0.000 HD
ENDROOT
BRANCH   7  24
ATOM     24  C   UNL     1     -45.430 -17.596 -21.082  0.00  0.00    +0.000 A 
ATOM     25  C   UNL     1     -46.393 -17.987 -20.136  0.00  0.00    +0.000 A 
ATOM     26  F   UNL     1     -47.125 -19.113 -20.323  0.00  0.00    +0.000 F 
ATOM     27  C   UNL     1     -46.626 -17.199 -19.005  0.00  0.00    +0.000 A 
ATOM     28  C   UNL     1     -45.906 -16.019 -18.810  0.00  0.00    +0.000 A 
ATOM     29  C   UNL     1     -44.950 -15.621 -19.748  0.00  0.00    +0.000 A 
ATOM     30  C   UNL     1     -44.709 -16.400 -20.881  0.00  0.00    +0.000 A 
ATOM     31  F   UNL     1     -43.784 -15.986 -21.783  0.00  0.00    +0.000 F 
ENDBRANCH   7  24
TORSDOF 1
ENDMDL
