MODEL 1
REMARK VINA RESULT:      -6.0      0.000      0.000
REMARK  Name = ZINC000079361855 ZINC79361855 PubChem-96551248
REMARK  3 active torsions:
REMARK  status: ('A' for Active; 'I' for Inactive)
REMARK    1  A    between atoms: C_4  and  N_19
REMARK    2  A    between atoms: C_7  and  C_8
REMARK    3  A    between atoms: C_12  and  C_13
REMARK                            x       y       z     vdW  Elec       q    Type
REMARK                         _______ _______ _______ _____ _____    ______ ____
ROOT
ATOM      1  C   UNL     1     -46.034  -3.363 -31.458  0.00  0.00    +0.000 C 
ATOM      2  C   UNL     1     -46.905  -3.406 -32.715  0.00  0.00    +0.000 C 
ATOM      3  C   UNL     1     -46.810  -4.750 -33.427  0.00  0.00    +0.000 C 
ATOM      4  C   UNL     1     -45.386  -5.162 -33.626  0.00  0.00    +0.000 C 
ATOM      5  C   UNL     1     -44.557  -3.642 -31.768  0.00  0.00    +0.000 C 
ATOM      6  C   UNL     1     -43.074  -5.433 -32.705  0.00  0.00    +0.000 C 
ATOM      7  N   UNL     1     -44.371  -4.772 -32.685  0.00  0.00    +0.000 N 
ATOM      8  O   UNL     1     -45.097  -5.902 -34.603  0.00  0.00    +0.000 OA
ENDROOT
BRANCH   5   9
ATOM      9  C   UNL     1     -43.873  -2.416 -32.293  0.00  0.00    +0.000 A 
ATOM     10  C   UNL     1     -44.399  -1.469 -33.155  0.00  0.00    +0.000 A 
ATOM     11  C   UNL     1     -42.575  -2.043 -32.018  0.00  0.00    +0.000 A 
ATOM     12  C   UNL     1     -41.123  -0.154 -32.707  0.00  0.00    +0.000 C 
ATOM     13  N   UNL     1     -43.440  -0.552 -33.382  0.00  0.00    +0.000 NA
ATOM     14  N   UNL     1     -42.365  -0.906 -32.700  0.00  0.00    +0.000 N 
ENDBRANCH   5   9
BRANCH   1  15
ATOM     15  C   UNL     1     -46.563  -4.245 -30.368  0.00  0.00    +0.000 C 
ATOM     16  N   UNL     1     -45.729  -5.264 -29.796  0.00  0.00    +0.000 NA
ATOM     17  O   UNL     1     -47.753  -4.091 -29.986  0.00  0.00    +0.000 OA
BRANCH  16  21
ATOM     18  C   UNL     1     -46.186  -6.255 -24.987  0.00  0.00    +0.000 C 
ATOM     19  C   UNL     1     -46.313  -6.674 -26.407  0.00  0.00    +0.000 A 
ATOM     20  C   UNL     1     -45.967  -5.788 -27.429  0.00  0.00    +0.000 A 
ATOM     21  C   UNL     1     -46.088  -6.189 -28.762  0.00  0.00    +0.000 A 
ATOM     22  C   UNL     1     -46.557  -7.479 -29.047  0.00  0.00    +0.000 A 
ATOM     23  C   UNL     1     -46.893  -8.337 -27.999  0.00  0.00    +0.000 A 
ATOM     24  N   UNL     1     -46.765  -7.921 -26.710  0.00  0.00    +0.000 NA
ENDBRANCH  16  21
ENDBRANCH   1  15
TORSDOF 3
ENDMDL
MODEL 2
REMARK VINA RESULT:      -5.9     11.438     14.854
REMARK  Name = ZINC000079361855 ZINC79361855 PubChem-96551248
REMARK  3 active torsions:
REMARK  status: ('A' for Active; 'I' for Inactive)
REMARK    1  A    between atoms: C_4  and  N_19
REMARK    2  A    between atoms: C_7  and  C_8
REMARK    3  A    between atoms: C_12  and  C_13
REMARK                            x       y       z     vdW  Elec       q    Type
REMARK                         _______ _______ _______ _____ _____    ______ ____
ROOT
ATOM      1  C   UNL     1     -44.223 -18.246 -26.172  0.00  0.00    +0.000 C 
ATOM      2  C   UNL     1     -43.625 -19.210 -27.198  0.00  0.00    +0.000 C 
ATOM      3  C   UNL     1     -42.169 -19.539 -26.888  0.00  0.00    +0.000 C 
ATOM      4  C   UNL     1     -41.371 -18.297 -26.640  0.00  0.00    +0.000 C 
ATOM      5  C   UNL     1     -43.439 -16.930 -26.088  0.00  0.00    +0.000 C 
ATOM      6  C   UNL     1     -41.153 -16.064 -25.533  0.00  0.00    +0.000 C 
ATOM      7  N   UNL     1     -41.986 -17.133 -26.062  0.00  0.00    +0.000 N 
ATOM      8  O   UNL     1     -40.138 -18.305 -26.897  0.00  0.00    +0.000 OA
ENDROOT
BRANCH   5   9
ATOM      9  C   UNL     1     -43.823 -15.999 -27.198  0.00  0.00    +0.000 A 
ATOM     10  C   UNL     1     -43.148 -15.796 -28.390  0.00  0.00    +0.000 A 
ATOM     11  C   UNL     1     -44.916 -15.160 -27.199  0.00  0.00    +0.000 A 
ATOM     12  C   UNL     1     -45.836 -13.498 -28.793  0.00  0.00    +0.000 C 
ATOM     13  N   UNL     1     -43.827 -14.863 -29.085  0.00  0.00    +0.000 NA
ATOM     14  N   UNL     1     -44.873 -14.496 -28.365  0.00  0.00    +0.000 N 
ENDBRANCH   5   9
BRANCH   1  15
ATOM     15  C   UNL     1     -44.406 -18.885 -24.829  0.00  0.00    +0.000 C 
ATOM     16  N   UNL     1     -44.029 -18.180 -23.637  0.00  0.00    +0.000 NA
ATOM     17  O   UNL     1     -44.872 -20.055 -24.771  0.00  0.00    +0.000 OA
BRANCH  16  21
ATOM     18  C   UNL     1     -46.790 -18.943 -19.623  0.00  0.00    +0.000 C 
ATOM     19  C   UNL     1     -45.482 -19.029 -20.324  0.00  0.00    +0.000 A 
ATOM     20  C   UNL     1     -45.363 -18.571 -21.637  0.00  0.00    +0.000 A 
ATOM     21  C   UNL     1     -44.130 -18.655 -22.289  0.00  0.00    +0.000 A 
ATOM     22  C   UNL     1     -43.033 -19.200 -21.607  0.00  0.00    +0.000 A 
ATOM     23  C   UNL     1     -43.191 -19.647 -20.294  0.00  0.00    +0.000 A 
ATOM     24  N   UNL     1     -44.403 -19.553 -19.684  0.00  0.00    +0.000 NA
ENDBRANCH  16  21
ENDBRANCH   1  15
TORSDOF 3
ENDMDL
MODEL 3
REMARK VINA RESULT:      -5.9     14.870     17.538
REMARK  Name = ZINC000079361855 ZINC79361855 PubChem-96551248
REMARK  3 active torsions:
REMARK  status: ('A' for Active; 'I' for Inactive)
REMARK    1  A    between atoms: C_4  and  N_19
REMARK    2  A    between atoms: C_7  and  C_8
REMARK    3  A    between atoms: C_12  and  C_13
REMARK                            x       y       z     vdW  Elec       q    Type
REMARK                         _______ _______ _______ _____ _____    ______ ____
ROOT
ATOM      1  C   UNL     1     -45.823 -18.265 -20.338  0.00  0.00    +0.000 C 
ATOM      2  C   UNL     1     -46.057 -19.585 -19.599  0.00  0.00    +0.000 C 
ATOM      3  C   UNL     1     -45.070 -19.777 -18.454  0.00  0.00    +0.000 C 
ATOM      4  C   UNL     1     -43.662 -19.539 -18.902  0.00  0.00    +0.000 C 
ATOM      5  C   UNL     1     -44.400 -18.163 -20.905  0.00  0.00    +0.000 C 
ATOM      6  C   UNL     1     -42.009 -18.139 -20.154  0.00  0.00    +0.000 C 
ATOM      7  N   UNL     1     -43.374 -18.598 -19.950  0.00  0.00    +0.000 N 
ATOM      8  O   UNL     1     -42.726 -20.138 -18.310  0.00  0.00    +0.000 OA
ENDROOT
BRANCH   5   9
ATOM      9  C   UNL     1     -44.276 -18.917 -22.194  0.00  0.00    +0.000 A 
ATOM     10  C   UNL     1     -43.347 -19.896 -22.505  0.00  0.00    +0.000 A 
ATOM     11  C   UNL     1     -45.065 -18.733 -23.309  0.00  0.00    +0.000 A 
ATOM     12  C   UNL     1     -45.140 -19.738 -25.575  0.00  0.00    +0.000 C 
ATOM     13  N   UNL     1     -43.582 -20.288 -23.772  0.00  0.00    +0.000 NA
ATOM     14  N   UNL     1     -44.604 -19.590 -24.235  0.00  0.00    +0.000 N 
ENDBRANCH   5   9
BRANCH   1  15
ATOM     15  C   UNL     1     -46.190 -17.074 -19.507  0.00  0.00    +0.000 C 
ATOM     16  N   UNL     1     -45.344 -15.914 -19.494  0.00  0.00    +0.000 NA
ATOM     17  O   UNL     1     -47.237 -17.121 -18.807  0.00  0.00    +0.000 OA
BRANCH  16  21
ATOM     18  C   UNL     1     -47.036 -11.285 -19.332  0.00  0.00    +0.000 C 
ATOM     19  C   UNL     1     -46.379 -12.441 -18.668  0.00  0.00    +0.000 A 
ATOM     20  C   UNL     1     -46.169 -13.625 -19.378  0.00  0.00    +0.000 A 
ATOM     21  C   UNL     1     -45.550 -14.708 -18.748  0.00  0.00    +0.000 A 
ATOM     22  C   UNL     1     -45.152 -14.583 -17.410  0.00  0.00    +0.000 A 
ATOM     23  C   UNL     1     -45.379 -13.384 -16.733  0.00  0.00    +0.000 A 
ATOM     24  N   UNL     1     -45.983 -12.345 -17.371  0.00  0.00    +0.000 NA
ENDBRANCH  16  21
ENDBRANCH   1  15
TORSDOF 3
ENDMDL
