MODEL 1
REMARK VINA RESULT:      -5.9      0.000      0.000
REMARK  Name = ZINC000096181382 ZINC96181382 PubChem-97457252
REMARK  4 active torsions:
REMARK  status: ('A' for Active; 'I' for Inactive)
REMARK    1  A    between atoms: C_1  and  C_12
REMARK    2  A    between atoms: C_2  and  C_15
REMARK    3  A    between atoms: N_17  and  C_19
REMARK    4  A    between atoms: C_19  and  C_20
REMARK                            x       y       z     vdW  Elec       q    Type
REMARK                         _______ _______ _______ _____ _____    ______ ____
ROOT
ATOM      1  C   UNL     1     -44.215 -17.032 -22.923  0.00  0.00    +0.000 C 
ATOM      2  C   UNL     1     -45.236 -18.124 -22.553  0.00  0.00    +0.000 C 
ATOM      3  C   UNL     1     -45.672 -18.825 -23.846  0.00  0.00    +0.000 C 
ATOM      4  C   UNL     1     -44.992 -18.035 -24.893  0.00  0.00    +0.000 C 
ATOM      5  O   UNL     1     -45.096 -18.275 -26.124  0.00  0.00    +0.000 OA
ATOM      6  N   UNL     1     -44.189 -16.996 -24.374  0.00  0.00    +0.000 N 
ATOM      7  C   UNL     1     -43.203 -16.260 -25.148  0.00  0.00    +0.000 C 
ENDROOT
BRANCH   1  12
ATOM      8  C   UNL     1     -45.853 -11.921 -20.767  0.00  0.00    +0.000 C 
ATOM      9  C   UNL     1     -45.425 -13.232 -21.318  0.00  0.00    +0.000 A 
ATOM     10  C   UNL     1     -44.070 -13.573 -21.335  0.00  0.00    +0.000 A 
ATOM     11  C   UNL     1     -43.666 -14.807 -21.853  0.00  0.00    +0.000 A 
ATOM     12  C   UNL     1     -44.620 -15.707 -22.354  0.00  0.00    +0.000 A 
ATOM     13  C   UNL     1     -45.975 -15.360 -22.337  0.00  0.00    +0.000 A 
ATOM     14  C   UNL     1     -46.377 -14.124 -21.819  0.00  0.00    +0.000 A 
ENDBRANCH   1  12
BRANCH   2  15
ATOM     15  C   UNL     1     -44.684 -19.090 -21.546  0.00  0.00    +0.000 C 
ATOM     16  O   UNL     1     -43.690 -19.789 -21.868  0.00  0.00    +0.000 OA
ATOM     17  N   UNL     1     -45.247 -19.247 -20.237  0.00  0.00    +0.000 N 
ATOM     18  H   UNL     1     -44.831 -19.901 -19.629  0.00  0.00    +0.000 HD
BRANCH  17  19
ATOM     19  C   UNL     1     -46.397 -18.498 -19.755  0.00  0.00    +0.000 C 
BRANCH  19  20
ATOM     20  C   UNL     1     -45.946 -17.221 -19.141  0.00  0.00    +0.000 A 
ATOM     21  C   UNL     1     -46.886 -16.255 -18.766  0.00  0.00    +0.000 A 
ATOM     22  C   UNL     1     -46.463 -15.062 -18.170  0.00  0.00    +0.000 A 
ATOM     23  C   UNL     1     -45.101 -14.838 -17.944  0.00  0.00    +0.000 A 
ATOM     24  C   UNL     1     -44.163 -15.806 -18.313  0.00  0.00    +0.000 A 
ATOM     25  C   UNL     1     -44.585 -16.999 -18.909  0.00  0.00    +0.000 A 
ENDBRANCH  19  20
ENDBRANCH  17  19
ENDBRANCH   2  15
TORSDOF 4
ENDMDL
MODEL 2
REMARK VINA RESULT:      -5.8     13.282     15.998
REMARK  Name = ZINC000096181382 ZINC96181382 PubChem-97457252
REMARK  4 active torsions:
REMARK  status: ('A' for Active; 'I' for Inactive)
REMARK    1  A    between atoms: C_1  and  C_12
REMARK    2  A    between atoms: C_2  and  C_15
REMARK    3  A    between atoms: N_17  and  C_19
REMARK    4  A    between atoms: C_19  and  C_20
REMARK                            x       y       z     vdW  Elec       q    Type
REMARK                         _______ _______ _______ _____ _____    ______ ____
ROOT
ATOM      1  C   UNL     1     -44.724  -5.834 -30.052  0.00  0.00    +0.000 C 
ATOM      2  C   UNL     1     -46.169  -6.172 -30.460  0.00  0.00    +0.000 C 
ATOM      3  C   UNL     1     -46.523  -7.540 -29.864  0.00  0.00    +0.000 C 
ATOM      4  C   UNL     1     -45.248  -7.976 -29.259  0.00  0.00    +0.000 C 
ATOM      5  O   UNL     1     -45.099  -9.074 -28.662  0.00  0.00    +0.000 OA
ATOM      6  N   UNL     1     -44.215  -7.022 -29.391  0.00  0.00    +0.000 N 
ATOM      7  C   UNL     1     -42.962  -7.065 -28.655  0.00  0.00    +0.000 C 
ENDROOT
BRANCH   1  12
ATOM      8  C   UNL     1     -41.508  -4.411 -34.645  0.00  0.00    +0.000 C 
ATOM      9  C   UNL     1     -42.338  -4.782 -33.469  0.00  0.00    +0.000 A 
ATOM     10  C   UNL     1     -43.348  -5.738 -33.602  0.00  0.00    +0.000 A 
ATOM     11  C   UNL     1     -44.129  -6.089 -32.497  0.00  0.00    +0.000 A 
ATOM     12  C   UNL     1     -43.897  -5.483 -31.251  0.00  0.00    +0.000 A 
ATOM     13  C   UNL     1     -42.887  -4.525 -31.124  0.00  0.00    +0.000 A 
ATOM     14  C   UNL     1     -42.107  -4.175 -32.232  0.00  0.00    +0.000 A 
ENDBRANCH   1  12
BRANCH   2  15
ATOM     15  C   UNL     1     -47.136  -5.105 -30.039  0.00  0.00    +0.000 C 
ATOM     16  O   UNL     1     -47.563  -5.117 -28.856  0.00  0.00    +0.000 OA
ATOM     17  N   UNL     1     -47.592  -4.080 -30.930  0.00  0.00    +0.000 N 
ATOM     18  H   UNL     1     -48.227  -3.412 -30.583  0.00  0.00    +0.000 HD
BRANCH  17  19
ATOM     19  C   UNL     1     -47.172  -3.968 -32.319  0.00  0.00    +0.000 C 
BRANCH  19  20
ATOM     20  C   UNL     1     -46.117  -2.928 -32.444  0.00  0.00    +0.000 A 
ATOM     21  C   UNL     1     -45.744  -2.171 -31.328  0.00  0.00    +0.000 A 
ATOM     22  C   UNL     1     -44.737  -1.207 -31.442  0.00  0.00    +0.000 A 
ATOM     23  C   UNL     1     -44.099  -1.003 -32.669  0.00  0.00    +0.000 A 
ATOM     24  C   UNL     1     -44.467  -1.764 -33.783  0.00  0.00    +0.000 A 
ATOM     25  C   UNL     1     -45.473  -2.728 -33.670  0.00  0.00    +0.000 A 
ENDBRANCH  19  20
ENDBRANCH  17  19
ENDBRANCH   2  15
TORSDOF 4
ENDMDL
MODEL 3
REMARK VINA RESULT:      -5.6     11.832     14.192
REMARK  Name = ZINC000096181382 ZINC96181382 PubChem-97457252
REMARK  4 active torsions:
REMARK  status: ('A' for Active; 'I' for Inactive)
REMARK    1  A    between atoms: C_1  and  C_12
REMARK    2  A    between atoms: C_2  and  C_15
REMARK    3  A    between atoms: N_17  and  C_19
REMARK    4  A    between atoms: C_19  and  C_20
REMARK                            x       y       z     vdW  Elec       q    Type
REMARK                         _______ _______ _______ _____ _____    ______ ____
ROOT
ATOM      1  C   UNL     1     -45.393  -5.244 -31.767  0.00  0.00    +0.000 C 
ATOM      2  C   UNL     1     -46.603  -5.680 -32.612  0.00  0.00    +0.000 C 
ATOM      3  C   UNL     1     -46.929  -4.549 -33.595  0.00  0.00    +0.000 C 
ATOM      4  C   UNL     1     -45.990  -3.482 -33.192  0.00  0.00    +0.000 C 
ATOM      5  O   UNL     1     -45.935  -2.355 -33.748  0.00  0.00    +0.000 OA
ATOM      6  N   UNL     1     -45.137  -3.863 -32.132  0.00  0.00    +0.000 N 
ATOM      7  C   UNL     1     -43.949  -3.127 -31.734  0.00  0.00    +0.000 C 
ENDROOT
BRANCH   1  12
ATOM      8  C   UNL     1     -46.592  -5.681 -26.125  0.00  0.00    +0.000 C 
ATOM      9  C   UNL     1     -46.277  -5.574 -27.573  0.00  0.00    +0.000 A 
ATOM     10  C   UNL     1     -45.070  -6.078 -28.064  0.00  0.00    +0.000 A 
ATOM     11  C   UNL     1     -44.774  -5.978 -29.427  0.00  0.00    +0.000 A 
ATOM     12  C   UNL     1     -45.688  -5.373 -30.304  0.00  0.00    +0.000 A 
ATOM     13  C   UNL     1     -46.893  -4.867 -29.806  0.00  0.00    +0.000 A 
ATOM     14  C   UNL     1     -47.188  -4.968 -28.443  0.00  0.00    +0.000 A 
ENDBRANCH   1  12
BRANCH   2  15
ATOM     15  C   UNL     1     -46.358  -6.984 -33.313  0.00  0.00    +0.000 C 
ATOM     16  O   UNL     1     -45.640  -6.983 -34.347  0.00  0.00    +0.000 OA
ATOM     17  N   UNL     1     -46.910  -8.224 -32.855  0.00  0.00    +0.000 N 
ATOM     18  H   UNL     1     -46.705  -9.040 -33.367  0.00  0.00    +0.000 HD
BRANCH  17  19
ATOM     19  C   UNL     1     -47.756  -8.348 -31.678  0.00  0.00    +0.000 C 
BRANCH  19  20
ATOM     20  C   UNL     1     -46.948  -8.824 -30.524  0.00  0.00    +0.000 A 
ATOM     21  C   UNL     1     -47.474  -8.761 -29.229  0.00  0.00    +0.000 A 
ATOM     22  C   UNL     1     -46.722  -9.228 -28.146  0.00  0.00    +0.000 A 
ATOM     23  C   UNL     1     -45.447  -9.762 -28.358  0.00  0.00    +0.000 A 
ATOM     24  C   UNL     1     -44.924  -9.830 -29.652  0.00  0.00    +0.000 A 
ATOM     25  C   UNL     1     -45.676  -9.364 -30.736  0.00  0.00    +0.000 A 
ENDBRANCH  19  20
ENDBRANCH  17  19
ENDBRANCH   2  15
TORSDOF 4
ENDMDL
