MODEL 1
REMARK VINA RESULT:      -5.6      0.000      0.000
REMARK  Name = ZINC000239637078 PubChem-124725638
REMARK  7 active torsions:
REMARK  status: ('A' for Active; 'I' for Inactive)
REMARK    1  A    between atoms: C_2  and  C_3
REMARK    2  A    between atoms: C_2  and  C_17
REMARK    3  A    between atoms: C_3  and  N_21
REMARK    4  A    between atoms: C_4  and  C_5
REMARK    5  A    between atoms: C_8  and  N_22
REMARK    6  A    between atoms: C_12  and  C_13
REMARK    7  A    between atoms: C_17  and  N_25
REMARK                            x       y       z     vdW  Elec       q    Type
REMARK                         _______ _______ _______ _____ _____    ______ ____
ROOT
ATOM      1  C   UNL     1     -46.328  -3.792 -31.913  0.00  0.00    +0.000 C 
ATOM      2  C   UNL     1     -47.020  -4.486 -33.089  0.00  0.00    +0.000 C 
ATOM      3  C   UNL     1     -45.915  -5.183 -33.770  0.00  0.00    +0.000 C 
ATOM      4  C   UNL     1     -44.813  -4.022 -32.063  0.00  0.00    +0.000 C 
ATOM      5  N   UNL     1     -44.648  -4.955 -33.172  0.00  0.00    +0.000 N 
ATOM      6  O   UNL     1     -46.077  -5.899 -34.792  0.00  0.00    +0.000 OA
ENDROOT
BRANCH   4   7
ATOM      7  C   UNL     1     -44.128  -2.723 -32.356  0.00  0.00    +0.000 A 
ATOM      8  C   UNL     1     -44.619  -1.717 -33.165  0.00  0.00    +0.000 A 
ATOM      9  C   UNL     1     -41.523  -0.265 -32.180  0.00  0.00    +0.000 C 
ATOM     10  C   UNL     1     -42.896  -2.309 -31.889  0.00  0.00    +0.000 A 
ATOM     11  N   UNL     1     -43.710  -0.724 -33.175  0.00  0.00    +0.000 NA
ATOM     12  N   UNL     1     -42.692  -1.091 -32.414  0.00  0.00    +0.000 N 
ENDBRANCH   4   7
BRANCH   5  13
ATOM     13  C   UNL     1     -43.402  -5.645 -33.549  0.00  0.00    +0.000 C 
ATOM     14  C   UNL     1     -43.674  -7.018 -34.144  0.00  0.00    +0.000 C 
ATOM     15  C   UNL     1     -42.524  -5.822 -32.324  0.00  0.00    +0.000 C 
ATOM     16  C   UNL     1     -42.651  -4.832 -34.586  0.00  0.00    +0.000 C 
ENDBRANCH   5  13
BRANCH   1  17
ATOM     17  C   UNL     1     -46.821  -4.366 -30.625  0.00  0.00    +0.000 C 
ATOM     18  N   UNL     1     -46.272  -5.587 -30.124  0.00  0.00    +0.000 NA
ATOM     19  O   UNL     1     -47.748  -3.779 -30.004  0.00  0.00    +0.000 OA
BRANCH  18  20
ATOM     20  C   UNL     1     -46.767  -6.225 -28.912  0.00  0.00    +0.000 C 
BRANCH  20  22
ATOM     21  C   UNL     1     -46.748  -8.376 -27.632  0.00  0.00    +0.000 C 
ATOM     22  C   UNL     1     -46.657  -7.746 -29.009  0.00  0.00    +0.000 C 
BRANCH  22  23
ATOM     23  C   UNL     1     -47.721  -8.341 -29.924  0.00  0.00    +0.000 C 
BRANCH  23  27
ATOM     24  C   UNL     1     -47.151  -8.336 -32.337  0.00  0.00    +0.000 A 
ATOM     25  C   UNL     1     -46.444  -9.154 -33.201  0.00  0.00    +0.000 A 
ATOM     26  C   UNL     1     -46.007 -10.211 -32.418  0.00  0.00    +0.000 A 
ATOM     27  N   UNL     1     -47.125  -8.906 -31.124  0.00  0.00    +0.000 N 
ATOM     28  N   UNL     1     -46.433 -10.030 -31.154  0.00  0.00    +0.000 NA
ENDBRANCH  23  27
ENDBRANCH  22  23
ENDBRANCH  20  22
ENDBRANCH  18  20
ENDBRANCH   1  17
TORSDOF 7
ENDMDL
MODEL 2
REMARK VINA RESULT:      -5.6     12.381     15.966
REMARK  Name = ZINC000239637078 PubChem-124725638
REMARK  7 active torsions:
REMARK  status: ('A' for Active; 'I' for Inactive)
REMARK    1  A    between atoms: C_2  and  C_3
REMARK    2  A    between atoms: C_2  and  C_17
REMARK    3  A    between atoms: C_3  and  N_21
REMARK    4  A    between atoms: C_4  and  C_5
REMARK    5  A    between atoms: C_8  and  N_22
REMARK    6  A    between atoms: C_12  and  C_13
REMARK    7  A    between atoms: C_17  and  N_25
REMARK                            x       y       z     vdW  Elec       q    Type
REMARK                         _______ _______ _______ _____ _____    ______ ____
ROOT
ATOM      1  C   UNL     1     -45.555 -18.171 -23.499  0.00  0.00    +0.000 C 
ATOM      2  C   UNL     1     -45.772 -19.187 -24.623  0.00  0.00    +0.000 C 
ATOM      3  C   UNL     1     -44.754 -18.811 -25.621  0.00  0.00    +0.000 C 
ATOM      4  C   UNL     1     -44.493 -17.165 -23.978  0.00  0.00    +0.000 C 
ATOM      5  N   UNL     1     -43.989 -17.676 -25.249  0.00  0.00    +0.000 N 
ATOM      6  O   UNL     1     -44.589 -19.430 -26.704  0.00  0.00    +0.000 OA
ENDROOT
BRANCH   4   7
ATOM      7  C   UNL     1     -45.117 -15.816 -24.160  0.00  0.00    +0.000 A 
ATOM      8  C   UNL     1     -46.208 -15.532 -24.958  0.00  0.00    +0.000 A 
ATOM      9  C   UNL     1     -45.519 -12.285 -23.674  0.00  0.00    +0.000 C 
ATOM     10  C   UNL     1     -44.713 -14.628 -23.581  0.00  0.00    +0.000 A 
ATOM     11  N   UNL     1     -46.456 -14.213 -24.853  0.00  0.00    +0.000 NA
ATOM     12  N   UNL     1     -45.559 -13.690 -24.034  0.00  0.00    +0.000 N 
ENDBRANCH   4   7
BRANCH   5  13
ATOM     13  C   UNL     1     -42.810 -17.178 -25.978  0.00  0.00    +0.000 C 
ATOM     14  C   UNL     1     -41.973 -18.315 -26.542  0.00  0.00    +0.000 C 
ATOM     15  C   UNL     1     -41.936 -16.362 -25.043  0.00  0.00    +0.000 C 
ATOM     16  C   UNL     1     -43.247 -16.305 -27.139  0.00  0.00    +0.000 C 
ENDBRANCH   5  13
BRANCH   1  17
ATOM     17  C   UNL     1     -45.092 -18.874 -22.264  0.00  0.00    +0.000 C 
ATOM     18  N   UNL     1     -45.729 -18.620 -21.010  0.00  0.00    +0.000 NA
ATOM     19  O   UNL     1     -44.114 -19.666 -22.337  0.00  0.00    +0.000 OA
BRANCH  18  20
ATOM     20  C   UNL     1     -45.270 -19.223 -19.767  0.00  0.00    +0.000 C 
BRANCH  20  22
ATOM     21  C   UNL     1     -44.057 -17.250 -18.817  0.00  0.00    +0.000 C 
ATOM     22  C   UNL     1     -43.912 -18.662 -19.353  0.00  0.00    +0.000 C 
BRANCH  22  23
ATOM     23  C   UNL     1     -43.220 -19.540 -18.316  0.00  0.00    +0.000 C 
BRANCH  23  27
ATOM     24  C   UNL     1     -41.461 -20.279 -19.900  0.00  0.00    +0.000 A 
ATOM     25  C   UNL     1     -40.838 -21.473 -20.219  0.00  0.00    +0.000 A 
ATOM     26  C   UNL     1     -41.436 -22.420 -19.403  0.00  0.00    +0.000 A 
ATOM     27  N   UNL     1     -42.375 -20.538 -18.954  0.00  0.00    +0.000 N 
ATOM     28  N   UNL     1     -42.366 -21.819 -18.638  0.00  0.00    +0.000 NA
ENDBRANCH  23  27
ENDBRANCH  22  23
ENDBRANCH  20  22
ENDBRANCH  18  20
ENDBRANCH   1  17
TORSDOF 7
ENDMDL
MODEL 3
REMARK VINA RESULT:      -5.6     11.681     15.252
REMARK  Name = ZINC000239637078 PubChem-124725638
REMARK  7 active torsions:
REMARK  status: ('A' for Active; 'I' for Inactive)
REMARK    1  A    between atoms: C_2  and  C_3
REMARK    2  A    between atoms: C_2  and  C_17
REMARK    3  A    between atoms: C_3  and  N_21
REMARK    4  A    between atoms: C_4  and  C_5
REMARK    5  A    between atoms: C_8  and  N_22
REMARK    6  A    between atoms: C_12  and  C_13
REMARK    7  A    between atoms: C_17  and  N_25
REMARK                            x       y       z     vdW  Elec       q    Type
REMARK                         _______ _______ _______ _____ _____    ______ ____
ROOT
ATOM      1  C   UNL     1     -45.288 -18.280 -23.703  0.00  0.00    +0.000 C 
ATOM      2  C   UNL     1     -45.511 -19.320 -24.803  0.00  0.00    +0.000 C 
ATOM      3  C   UNL     1     -44.599 -18.882 -25.874  0.00  0.00    +0.000 C 
ATOM      4  C   UNL     1     -44.341 -17.203 -24.264  0.00  0.00    +0.000 C 
ATOM      5  N   UNL     1     -43.894 -17.689 -25.565  0.00  0.00    +0.000 N 
ATOM      6  O   UNL     1     -44.467 -19.498 -26.964  0.00  0.00    +0.000 OA
ENDROOT
BRANCH   4   7
ATOM      7  C   UNL     1     -45.074 -15.906 -24.406  0.00  0.00    +0.000 A 
ATOM      8  C   UNL     1     -46.320 -15.741 -24.981  0.00  0.00    +0.000 A 
ATOM      9  C   UNL     1     -45.597 -12.371 -24.093  0.00  0.00    +0.000 C 
ATOM     10  C   UNL     1     -44.639 -14.657 -24.006  0.00  0.00    +0.000 A 
ATOM     11  N   UNL     1     -46.626 -14.431 -24.919  0.00  0.00    +0.000 NA
ATOM     12  N   UNL     1     -45.618 -13.801 -24.339  0.00  0.00    +0.000 N 
ENDBRANCH   4   7
BRANCH   5  13
ATOM     13  C   UNL     1     -42.812 -17.115 -26.382  0.00  0.00    +0.000 C 
ATOM     14  C   UNL     1     -42.007 -18.191 -27.092  0.00  0.00    +0.000 C 
ATOM     15  C   UNL     1     -41.868 -16.321 -25.495  0.00  0.00    +0.000 C 
ATOM     16  C   UNL     1     -43.390 -16.195 -27.440  0.00  0.00    +0.000 C 
ENDBRANCH   5  13
BRANCH   1  17
ATOM     17  C   UNL     1     -44.687 -18.934 -22.502  0.00  0.00    +0.000 C 
ATOM     18  N   UNL     1     -45.171 -18.622 -21.194  0.00  0.00    +0.000 NA
ATOM     19  O   UNL     1     -43.726 -19.736 -22.654  0.00  0.00    +0.000 OA
BRANCH  18  20
ATOM     20  C   UNL     1     -44.572 -19.176 -19.988  0.00  0.00    +0.000 C 
BRANCH  20  22
ATOM     21  C   UNL     1     -43.037 -18.242 -18.246  0.00  0.00    +0.000 C 
ATOM     22  C   UNL     1     -44.387 -18.098 -18.923  0.00  0.00    +0.000 C 
BRANCH  22  23
ATOM     23  C   UNL     1     -44.531 -16.693 -19.498  0.00  0.00    +0.000 C 
BRANCH  23  27
ATOM     24  C   UNL     1     -46.897 -16.632 -18.757  0.00  0.00    +0.000 A 
ATOM     25  C   UNL     1     -47.755 -15.687 -18.223  0.00  0.00    +0.000 A 
ATOM     26  C   UNL     1     -47.004 -14.524 -18.142  0.00  0.00    +0.000 A 
ATOM     27  N   UNL     1     -45.718 -16.032 -18.978  0.00  0.00    +0.000 N 
ATOM     28  N   UNL     1     -45.764 -14.767 -18.605  0.00  0.00    +0.000 NA
ENDBRANCH  23  27
ENDBRANCH  22  23
ENDBRANCH  20  22
ENDBRANCH  18  20
ENDBRANCH   1  17
TORSDOF 7
ENDMDL
