MODEL 1
REMARK VINA RESULT:      -6.6      0.000      0.000
REMARK  Name = ZINC000005035803 ZINC05035803 PubChem-92248579
REMARK  6 active torsions:
REMARK  status: ('A' for Active; 'I' for Inactive)
REMARK    1  A    between atoms: C_5  and  C_8
REMARK    2  A    between atoms: C_8  and  N_22
REMARK    3  A    between atoms: C_9  and  C_10
REMARK    4  A    between atoms: C_13  and  C_14
REMARK    5  A    between atoms: C_17  and  O_27
REMARK    6  A    between atoms: C_18  and  O_26
REMARK                            x       y       z     vdW  Elec       q    Type
REMARK                         _______ _______ _______ _____ _____    ______ ____
ROOT
ATOM      1  C   UNL     1     -44.521 -18.610 -25.650  0.00  0.00    +0.000 C 
ATOM      2  C   UNL     1     -43.980 -19.619 -26.667  0.00  0.00    +0.000 C 
ATOM      3  C   UNL     1     -42.930 -18.846 -27.356  0.00  0.00    +0.000 C 
ATOM      4  C   UNL     1     -43.678 -17.331 -25.791  0.00  0.00    +0.000 C 
ATOM      5  O   UNL     1     -42.235 -19.295 -28.304  0.00  0.00    +0.000 OA
ATOM      6  O   UNL     1     -42.784 -17.569 -26.864  0.00  0.00    +0.000 OA
ENDROOT
BRANCH   4   7
ATOM      7  C   UNL     1     -44.546 -16.147 -26.080  0.00  0.00    +0.000 A 
ATOM      8  C   UNL     1     -45.376 -15.600 -25.094  0.00  0.00    +0.000 A 
ATOM      9  C   UNL     1     -46.174 -14.492 -25.388  0.00  0.00    +0.000 A 
ATOM     10  C   UNL     1     -46.149 -13.915 -26.668  0.00  0.00    +0.000 A 
ATOM     11  C   UNL     1     -45.314 -14.458 -27.657  0.00  0.00    +0.000 A 
ATOM     12  C   UNL     1     -44.515 -15.574 -27.354  0.00  0.00    +0.000 A 
BRANCH  11  14
ATOM     13  C   UNL     1     -44.287 -12.959 -29.338  0.00  0.00    +0.000 C 
ATOM     14  O   UNL     1     -45.294 -13.875 -28.929  0.00  0.00    +0.000 OA
ENDBRANCH  11  14
BRANCH  10  16
ATOM     15  C   UNL     1     -46.577 -11.476 -26.624  0.00  0.00    +0.000 C 
ATOM     16  O   UNL     1     -46.942 -12.803 -26.978  0.00  0.00    +0.000 OA
ENDBRANCH  10  16
ENDBRANCH   4   7
BRANCH   1  17
ATOM     17  C   UNL     1     -44.424 -19.148 -24.261  0.00  0.00    +0.000 C 
ATOM     18  N   UNL     1     -44.836 -18.349 -23.150  0.00  0.00    +0.000 NA
ATOM     19  O   UNL     1     -43.980 -20.312 -24.081  0.00  0.00    +0.000 OA
BRANCH  18  20
ATOM     20  C   UNL     1     -44.829 -18.856 -21.787  0.00  0.00    +0.000 C 
BRANCH  20  25
ATOM     21  C   UNL     1     -47.487 -15.041 -18.366  0.00  0.00    +0.000 C 
ATOM     22  C   UNL     1     -46.793 -16.025 -19.238  0.00  0.00    +0.000 A 
ATOM     23  C   UNL     1     -46.925 -17.395 -18.989  0.00  0.00    +0.000 A 
ATOM     24  C   UNL     1     -46.277 -18.320 -19.813  0.00  0.00    +0.000 A 
ATOM     25  C   UNL     1     -45.494 -17.876 -20.886  0.00  0.00    +0.000 A 
ATOM     26  C   UNL     1     -45.370 -16.505 -21.138  0.00  0.00    +0.000 A 
ATOM     27  C   UNL     1     -46.016 -15.581 -20.312  0.00  0.00    +0.000 A 
ENDBRANCH  20  25
ENDBRANCH  18  20
ENDBRANCH   1  17
TORSDOF 6
ENDMDL
MODEL 2
REMARK VINA RESULT:      -6.5      1.631      2.517
REMARK  Name = ZINC000005035803 ZINC05035803 PubChem-92248579
REMARK  6 active torsions:
REMARK  status: ('A' for Active; 'I' for Inactive)
REMARK    1  A    between atoms: C_5  and  C_8
REMARK    2  A    between atoms: C_8  and  N_22
REMARK    3  A    between atoms: C_9  and  C_10
REMARK    4  A    between atoms: C_13  and  C_14
REMARK    5  A    between atoms: C_17  and  O_27
REMARK    6  A    between atoms: C_18  and  O_26
REMARK                            x       y       z     vdW  Elec       q    Type
REMARK                         _______ _______ _______ _____ _____    ______ ____
ROOT
ATOM      1  C   UNL     1     -45.132 -18.437 -24.404  0.00  0.00    +0.000 C 
ATOM      2  C   UNL     1     -45.023 -19.649 -25.333  0.00  0.00    +0.000 C 
ATOM      3  C   UNL     1     -44.012 -19.210 -26.313  0.00  0.00    +0.000 C 
ATOM      4  C   UNL     1     -44.106 -17.400 -24.892  0.00  0.00    +0.000 C 
ATOM      5  O   UNL     1     -43.633 -19.906 -27.290  0.00  0.00    +0.000 OA
ATOM      6  O   UNL     1     -43.521 -17.950 -26.060  0.00  0.00    +0.000 OA
ENDROOT
BRANCH   4   7
ATOM      7  C   UNL     1     -44.768 -16.095 -25.199  0.00  0.00    +0.000 A 
ATOM      8  C   UNL     1     -44.932 -15.659 -26.520  0.00  0.00    +0.000 A 
ATOM      9  C   UNL     1     -45.557 -14.438 -26.782  0.00  0.00    +0.000 A 
ATOM     10  C   UNL     1     -46.030 -13.639 -25.728  0.00  0.00    +0.000 A 
ATOM     11  C   UNL     1     -45.872 -14.076 -24.402  0.00  0.00    +0.000 A 
ATOM     12  C   UNL     1     -45.240 -15.305 -24.148  0.00  0.00    +0.000 A 
BRANCH  11  14
ATOM     13  C   UNL     1     -45.489 -12.509 -22.523  0.00  0.00    +0.000 C 
ATOM     14  O   UNL     1     -46.348 -13.274 -23.359  0.00  0.00    +0.000 OA
ENDBRANCH  11  14
BRANCH  10  16
ATOM     15  C   UNL     1     -46.715 -11.822 -27.265  0.00  0.00    +0.000 C 
ATOM     16  O   UNL     1     -46.659 -12.413 -25.972  0.00  0.00    +0.000 OA
ENDBRANCH  10  16
ENDBRANCH   4   7
BRANCH   1  17
ATOM     17  C   UNL     1     -44.851 -18.822 -22.990  0.00  0.00    +0.000 C 
ATOM     18  N   UNL     1     -45.582 -18.218 -21.921  0.00  0.00    +0.000 NA
ATOM     19  O   UNL     1     -43.968 -19.688 -22.750  0.00  0.00    +0.000 OA
BRANCH  18  20
ATOM     20  C   UNL     1     -45.395 -18.614 -20.534  0.00  0.00    +0.000 C 
BRANCH  20  25
ATOM     21  C   UNL     1     -45.586 -14.010 -17.058  0.00  0.00    +0.000 C 
ATOM     22  C   UNL     1     -45.536 -15.188 -17.964  0.00  0.00    +0.000 A 
ATOM     23  C   UNL     1     -44.307 -15.636 -18.459  0.00  0.00    +0.000 A 
ATOM     24  C   UNL     1     -44.260 -16.748 -19.306  0.00  0.00    +0.000 A 
ATOM     25  C   UNL     1     -45.442 -17.410 -19.660  0.00  0.00    +0.000 A 
ATOM     26  C   UNL     1     -46.669 -16.964 -19.158  0.00  0.00    +0.000 A 
ATOM     27  C   UNL     1     -46.716 -15.851 -18.313  0.00  0.00    +0.000 A 
ENDBRANCH  20  25
ENDBRANCH  18  20
ENDBRANCH   1  17
TORSDOF 6
ENDMDL
MODEL 3
REMARK VINA RESULT:      -6.5      8.852     14.717
REMARK  Name = ZINC000005035803 ZINC05035803 PubChem-92248579
REMARK  6 active torsions:
REMARK  status: ('A' for Active; 'I' for Inactive)
REMARK    1  A    between atoms: C_5  and  C_8
REMARK    2  A    between atoms: C_8  and  N_22
REMARK    3  A    between atoms: C_9  and  C_10
REMARK    4  A    between atoms: C_13  and  C_14
REMARK    5  A    between atoms: C_17  and  O_27
REMARK    6  A    between atoms: C_18  and  O_26
REMARK                            x       y       z     vdW  Elec       q    Type
REMARK                         _______ _______ _______ _____ _____    ______ ____
ROOT
ATOM      1  C   UNL     1     -47.125  -5.461 -30.900  0.00  0.00    +0.000 C 
ATOM      2  C   UNL     1     -47.756  -4.326 -30.090  0.00  0.00    +0.000 C 
ATOM      3  C   UNL     1     -47.056  -4.429 -28.796  0.00  0.00    +0.000 C 
ATOM      4  C   UNL     1     -46.041  -6.099 -30.014  0.00  0.00    +0.000 C 
ATOM      5  O   UNL     1     -47.292  -3.686 -27.809  0.00  0.00    +0.000 OA
ATOM      6  O   UNL     1     -46.113  -5.430 -28.767  0.00  0.00    +0.000 OA
ENDROOT
BRANCH   4   7
ATOM      7  C   UNL     1     -46.286  -7.565 -29.840  0.00  0.00    +0.000 A 
ATOM      8  C   UNL     1     -47.285  -8.223 -30.568  0.00  0.00    +0.000 A 
ATOM      9  C   UNL     1     -47.492  -9.593 -30.391  0.00  0.00    +0.000 A 
ATOM     10  C   UNL     1     -46.700 -10.323 -29.489  0.00  0.00    +0.000 A 
ATOM     11  C   UNL     1     -45.694  -9.666 -28.762  0.00  0.00    +0.000 A 
ATOM     12  C   UNL     1     -45.493  -8.288 -28.945  0.00  0.00    +0.000 A 
BRANCH  11  14
ATOM     13  C   UNL     1     -44.298  -9.821 -26.723  0.00  0.00    +0.000 C 
ATOM     14  O   UNL     1     -44.908 -10.402 -27.868  0.00  0.00    +0.000 OA
ENDBRANCH  11  14
BRANCH  10  16
ATOM     15  C   UNL     1     -46.324 -12.677 -30.158  0.00  0.00    +0.000 C 
ATOM     16  O   UNL     1     -46.894 -11.696 -29.301  0.00  0.00    +0.000 OA
ENDBRANCH  10  16
ENDBRANCH   4   7
BRANCH   1  17
ATOM     17  C   UNL     1     -46.525  -4.945 -32.166  0.00  0.00    +0.000 C 
ATOM     18  N   UNL     1     -46.603  -3.554 -32.483  0.00  0.00    +0.000 NA
ATOM     19  O   UNL     1     -45.947  -5.747 -32.946  0.00  0.00    +0.000 OA
BRANCH  18  20
ATOM     20  C   UNL     1     -45.970  -2.993 -33.666  0.00  0.00    +0.000 C 
BRANCH  20  25
ATOM     21  C   UNL     1     -41.109  -0.218 -32.255  0.00  0.00    +0.000 C 
ATOM     22  C   UNL     1     -42.361  -0.939 -32.607  0.00  0.00    +0.000 A 
ATOM     23  C   UNL     1     -43.593  -0.470 -32.136  0.00  0.00    +0.000 A 
ATOM     24  C   UNL     1     -44.771  -1.145 -32.473  0.00  0.00    +0.000 A 
ATOM     25  C   UNL     1     -44.717  -2.290 -33.277  0.00  0.00    +0.000 A 
ATOM     26  C   UNL     1     -43.485  -2.753 -33.752  0.00  0.00    +0.000 A 
ATOM     27  C   UNL     1     -42.308  -2.079 -33.413  0.00  0.00    +0.000 A 
ENDBRANCH  20  25
ENDBRANCH  18  20
ENDBRANCH   1  17
TORSDOF 6
ENDMDL
