MODEL 1
REMARK VINA RESULT:      -7.7      0.000      0.000
REMARK  Name = ZINC000217755306
REMARK  10 active torsions:
REMARK  status: ('A' for Active; 'I' for Inactive)
REMARK    1  A    between atoms: C_1  and  C_2
REMARK    2  A    between atoms: C_1  and  C_15
REMARK    3  A    between atoms: C_1  and  C_25
REMARK    4  A    between atoms: C_3  and  O_4
REMARK    5  A    between atoms: C_25  and  C_27
REMARK    6  A    between atoms: N_28  and  C_30
REMARK    7  A    between atoms: C_30  and  C_31
REMARK    8  A    between atoms: C_31  and  C_32
REMARK    9  A    between atoms: C_35  and  O_36
REMARK   10  A    between atoms: C_37  and  O_38
REMARK                            x       y       z     vdW  Elec       q    Type
REMARK                         _______ _______ _______ _____ _____    ______ ____
ROOT
ATOM      1  C   UNL     1     -46.028  -5.646 -30.088  0.00  0.00    +0.000 C 
ENDROOT
BRANCH   1   2
ATOM      2  C   UNL     1     -45.054  -4.666 -30.694  0.00  0.00    +0.000 A 
ATOM      3  C   UNL     1     -43.725  -5.060 -30.883  0.00  0.00    +0.000 A 
ATOM      4  N   UNL     1     -42.826  -4.193 -31.409  0.00  0.00    +0.000 NA
ATOM      5  C   UNL     1     -43.184  -2.934 -31.763  0.00  0.00    +0.000 A 
ATOM      6  C   UNL     1     -42.221  -2.077 -32.300  0.00  0.00    +0.000 A 
ATOM      7  C   UNL     1     -42.583  -0.782 -32.666  0.00  0.00    +0.000 A 
ATOM      8  C   UNL     1     -43.898  -0.357 -32.494  0.00  0.00    +0.000 A 
ATOM      9  C   UNL     1     -44.837  -1.238 -31.955  0.00  0.00    +0.000 A 
ATOM     10  N   UNL     1     -44.481  -2.508 -31.596  0.00  0.00    +0.000 N 
ATOM     11  C   UNL     1     -45.419  -3.357 -31.068  0.00  0.00    +0.000 A 
ATOM     12  O   UNL     1     -46.613  -2.970 -30.922  0.00  0.00    +0.000 OA
BRANCH   3  13
ATOM     13  O   UNL     1     -43.311  -6.341 -30.535  0.00  0.00    +0.000 OA
ATOM     14  H   UNL     1     -43.431  -7.051 -31.135  0.00  0.00    +0.000 HD
ENDBRANCH   3  13
ENDBRANCH   1   2
BRANCH   1  15
ATOM     15  C   UNL     1     -46.366  -5.336 -28.650  0.00  0.00    +0.000 A 
ATOM     16  C   UNL     1     -47.214  -4.266 -28.341  0.00  0.00    +0.000 A 
ATOM     17  C   UNL     1     -47.533  -3.990 -27.011  0.00  0.00    +0.000 A 
ATOM     18  N   UNL     1     -47.024  -4.757 -26.011  0.00  0.00    +0.000 NA
ATOM     19  C   UNL     1     -46.200  -5.807 -26.269  0.00  0.00    +0.000 A 
ATOM     20  C   UNL     1     -45.703  -6.577 -25.214  0.00  0.00    +0.000 A 
ATOM     21  C   UNL     1     -44.860  -7.661 -25.474  0.00  0.00    +0.000 A 
ATOM     22  C   UNL     1     -44.511  -7.980 -26.789  0.00  0.00    +0.000 A 
ATOM     23  C   UNL     1     -45.005  -7.216 -27.850  0.00  0.00    +0.000 A 
ATOM     24  C   UNL     1     -45.850  -6.124 -27.603  0.00  0.00    +0.000 A 
ENDBRANCH   1  15
BRANCH   1  25
ATOM     25  C   UNL     1     -47.252  -5.903 -30.965  0.00  0.00    +0.000 C 
BRANCH  25  27
ATOM     26  O   UNL     1     -47.218  -7.750 -32.466  0.00  0.00    +0.000 OA
ATOM     27  C   UNL     1     -47.375  -7.355 -31.280  0.00  0.00    +0.000 C 
ATOM     28  N   UNL     1     -47.624  -8.288 -30.226  0.00  0.00    +0.000 N 
ATOM     29  H   UNL     1     -47.734  -7.947 -29.310  0.00  0.00    +0.000 HD
BRANCH  28  30
ATOM     30  C   UNL     1     -47.723  -9.721 -30.456  0.00  0.00    +0.000 C 
BRANCH  30  31
ATOM     31  C   UNL     1     -46.365 -10.375 -30.261  0.00  0.00    +0.000 C 
BRANCH  31  32
ATOM     32  C   UNL     1     -46.393 -11.306 -29.099  0.00  0.00    +0.000 A 
ATOM     33  C   UNL     1     -46.268 -12.688 -29.289  0.00  0.00    +0.000 A 
ATOM     34  C   UNL     1     -46.280 -13.551 -28.190  0.00  0.00    +0.000 A 
ATOM     35  C   UNL     1     -46.414 -13.036 -26.896  0.00  0.00    +0.000 A 
ATOM     36  C   UNL     1     -46.535 -11.654 -26.703  0.00  0.00    +0.000 A 
ATOM     37  C   UNL     1     -46.521 -10.792 -27.804  0.00  0.00    +0.000 A 
BRANCH  36  38
ATOM     38  O   UNL     1     -46.666 -11.132 -25.423  0.00  0.00    +0.000 OA
ATOM     39  H   UNL     1     -46.791 -11.706 -24.693  0.00  0.00    +0.000 HD
ENDBRANCH  36  38
BRANCH  35  40
ATOM     40  O   UNL     1     -46.427 -13.901 -25.810  0.00  0.00    +0.000 OA
ATOM     41  H   UNL     1     -47.039 -13.769 -25.112  0.00  0.00    +0.000 HD
ENDBRANCH  35  40
ENDBRANCH  31  32
ENDBRANCH  30  31
ENDBRANCH  28  30
ENDBRANCH  25  27
ENDBRANCH   1  25
TORSDOF 10
ENDMDL
MODEL 2
REMARK VINA RESULT:      -7.7      0.840      1.805
REMARK  Name = ZINC000217755306
REMARK  10 active torsions:
REMARK  status: ('A' for Active; 'I' for Inactive)
REMARK    1  A    between atoms: C_1  and  C_2
REMARK    2  A    between atoms: C_1  and  C_15
REMARK    3  A    between atoms: C_1  and  C_25
REMARK    4  A    between atoms: C_3  and  O_4
REMARK    5  A    between atoms: C_25  and  C_27
REMARK    6  A    between atoms: N_28  and  C_30
REMARK    7  A    between atoms: C_30  and  C_31
REMARK    8  A    between atoms: C_31  and  C_32
REMARK    9  A    between atoms: C_35  and  O_36
REMARK   10  A    between atoms: C_37  and  O_38
REMARK                            x       y       z     vdW  Elec       q    Type
REMARK                         _______ _______ _______ _____ _____    ______ ____
ROOT
ATOM      1  C   UNL     1     -46.014  -5.737 -30.423  0.00  0.00    +0.000 C 
ENDROOT
BRANCH   1   2
ATOM      2  C   UNL     1     -45.502  -4.400 -30.901  0.00  0.00    +0.000 A 
ATOM      3  C   UNL     1     -46.388  -3.320 -30.968  0.00  0.00    +0.000 A 
ATOM      4  N   UNL     1     -45.957  -2.113 -31.411  0.00  0.00    +0.000 NA
ATOM      5  C   UNL     1     -44.672  -1.922 -31.798  0.00  0.00    +0.000 A 
ATOM      6  C   UNL     1     -44.276  -0.660 -32.248  0.00  0.00    +0.000 A 
ATOM      7  C   UNL     1     -42.957  -0.456 -32.646  0.00  0.00    +0.000 A 
ATOM      8  C   UNL     1     -42.048  -1.510 -32.590  0.00  0.00    +0.000 A 
ATOM      9  C   UNL     1     -42.474  -2.758 -32.135  0.00  0.00    +0.000 A 
ATOM     10  N   UNL     1     -43.769  -2.958 -31.745  0.00  0.00    +0.000 N 
ATOM     11  C   UNL     1     -44.167  -4.192 -31.301  0.00  0.00    +0.000 A 
ATOM     12  O   UNL     1     -43.337  -5.143 -31.243  0.00  0.00    +0.000 OA
BRANCH   3  13
ATOM     13  O   UNL     1     -47.716  -3.468 -30.583  0.00  0.00    +0.000 OA
ATOM     14  H   UNL     1     -48.178  -2.746 -30.205  0.00  0.00    +0.000 HD
ENDBRANCH   3  13
ENDBRANCH   1   2
BRANCH   1  15
ATOM     15  C   UNL     1     -45.991  -5.880 -28.920  0.00  0.00    +0.000 A 
ATOM     16  C   UNL     1     -46.803  -5.064 -28.123  0.00  0.00    +0.000 A 
ATOM     17  C   UNL     1     -46.787  -5.206 -26.735  0.00  0.00    +0.000 A 
ATOM     18  N   UNL     1     -45.986  -6.136 -26.151  0.00  0.00    +0.000 NA
ATOM     19  C   UNL     1     -45.186  -6.950 -26.890  0.00  0.00    +0.000 A 
ATOM     20  C   UNL     1     -44.381  -7.898 -26.252  0.00  0.00    +0.000 A 
ATOM     21  C   UNL     1     -43.560  -8.741 -27.007  0.00  0.00    +0.000 A 
ATOM     22  C   UNL     1     -43.541  -8.640 -28.400  0.00  0.00    +0.000 A 
ATOM     23  C   UNL     1     -44.343  -7.694 -29.045  0.00  0.00    +0.000 A 
ATOM     24  C   UNL     1     -45.170  -6.841 -28.300  0.00  0.00    +0.000 A 
ENDBRANCH   1  15
BRANCH   1  25
ATOM     25  C   UNL     1     -47.344  -6.138 -31.057  0.00  0.00    +0.000 C 
BRANCH  25  27
ATOM     26  O   UNL     1     -47.083  -8.062 -32.435  0.00  0.00    +0.000 OA
ATOM     27  C   UNL     1     -47.387  -7.608 -31.299  0.00  0.00    +0.000 C 
ATOM     28  N   UNL     1     -47.728  -8.491 -30.228  0.00  0.00    +0.000 N 
ATOM     29  H   UNL     1     -47.952  -8.105 -29.351  0.00  0.00    +0.000 HD
BRANCH  28  30
ATOM     30  C   UNL     1     -47.756  -9.937 -30.383  0.00  0.00    +0.000 C 
BRANCH  30  31
ATOM     31  C   UNL     1     -46.367 -10.513 -30.166  0.00  0.00    +0.000 C 
BRANCH  31  32
ATOM     32  C   UNL     1     -46.354 -11.422 -28.986  0.00  0.00    +0.000 A 
ATOM     33  C   UNL     1     -46.175 -12.801 -29.150  0.00  0.00    +0.000 A 
ATOM     34  C   UNL     1     -46.149 -13.643 -28.035  0.00  0.00    +0.000 A 
ATOM     35  C   UNL     1     -46.300 -13.108 -26.751  0.00  0.00    +0.000 A 
ATOM     36  C   UNL     1     -46.474 -11.729 -26.583  0.00  0.00    +0.000 A 
ATOM     37  C   UNL     1     -46.498 -10.888 -27.700  0.00  0.00    +0.000 A 
BRANCH  36  38
ATOM     38  O   UNL     1     -46.621 -11.187 -25.313  0.00  0.00    +0.000 OA
ATOM     39  H   UNL     1     -46.443 -10.278 -25.168  0.00  0.00    +0.000 HD
ENDBRANCH  36  38
BRANCH  35  40
ATOM     40  O   UNL     1     -46.275 -13.953 -25.647  0.00  0.00    +0.000 OA
ATOM     41  H   UNL     1     -45.898 -13.659 -24.841  0.00  0.00    +0.000 HD
ENDBRANCH  35  40
ENDBRANCH  31  32
ENDBRANCH  30  31
ENDBRANCH  28  30
ENDBRANCH  25  27
ENDBRANCH   1  25
TORSDOF 10
ENDMDL
MODEL 3
REMARK VINA RESULT:      -7.5      4.052      5.839
REMARK  Name = ZINC000217755306
REMARK  10 active torsions:
REMARK  status: ('A' for Active; 'I' for Inactive)
REMARK    1  A    between atoms: C_1  and  C_2
REMARK    2  A    between atoms: C_1  and  C_15
REMARK    3  A    between atoms: C_1  and  C_25
REMARK    4  A    between atoms: C_3  and  O_4
REMARK    5  A    between atoms: C_25  and  C_27
REMARK    6  A    between atoms: N_28  and  C_30
REMARK    7  A    between atoms: C_30  and  C_31
REMARK    8  A    between atoms: C_31  and  C_32
REMARK    9  A    between atoms: C_35  and  O_36
REMARK   10  A    between atoms: C_37  and  O_38
REMARK                            x       y       z     vdW  Elec       q    Type
REMARK                         _______ _______ _______ _____ _____    ______ ____
ROOT
ATOM      1  C   UNL     1     -45.784  -5.837 -33.722  0.00  0.00    +0.000 C 
ENDROOT
BRANCH   1   2
ATOM      2  C   UNL     1     -45.177  -4.470 -33.521  0.00  0.00    +0.000 A 
ATOM      3  C   UNL     1     -45.982  -3.340 -33.691  0.00  0.00    +0.000 A 
ATOM      4  N   UNL     1     -45.457  -2.100 -33.533  0.00  0.00    +0.000 NA
ATOM      5  C   UNL     1     -44.153  -1.922 -33.211  0.00  0.00    +0.000 A 
ATOM      6  C   UNL     1     -43.657  -0.625 -33.060  0.00  0.00    +0.000 A 
ATOM      7  C   UNL     1     -42.318  -0.436 -32.728  0.00  0.00    +0.000 A 
ATOM      8  C   UNL     1     -41.487  -1.540 -32.550  0.00  0.00    +0.000 A 
ATOM      9  C   UNL     1     -42.012  -2.823 -32.707  0.00  0.00    +0.000 A 
ATOM     10  N   UNL     1     -43.327  -3.008 -33.033  0.00  0.00    +0.000 N 
ATOM     11  C   UNL     1     -43.822  -4.277 -33.182  0.00  0.00    +0.000 A 
ATOM     12  O   UNL     1     -43.068  -5.277 -33.010  0.00  0.00    +0.000 OA
BRANCH   3  13
ATOM     13  O   UNL     1     -47.326  -3.472 -34.022  0.00  0.00    +0.000 OA
ATOM     14  H   UNL     1     -47.571  -3.803 -34.863  0.00  0.00    +0.000 HD
ENDBRANCH   3  13
ENDBRANCH   1   2
BRANCH   1  15
ATOM     15  C   UNL     1     -46.330  -6.439 -32.450  0.00  0.00    +0.000 A 
ATOM     16  C   UNL     1     -46.954  -5.624 -31.498  0.00  0.00    +0.000 A 
ATOM     17  C   UNL     1     -47.467  -6.185 -30.328  0.00  0.00    +0.000 A 
ATOM     18  N   UNL     1     -47.366  -7.522 -30.109  0.00  0.00    +0.000 NA
ATOM     19  C   UNL     1     -46.772  -8.348 -31.010  0.00  0.00    +0.000 A 
ATOM     20  C   UNL     1     -46.694  -9.720 -30.751  0.00  0.00    +0.000 A 
ATOM     21  C   UNL     1     -46.088 -10.574 -31.676  0.00  0.00    +0.000 A 
ATOM     22  C   UNL     1     -45.560 -10.062 -32.864  0.00  0.00    +0.000 A 
ATOM     23  C   UNL     1     -45.634  -8.692 -33.131  0.00  0.00    +0.000 A 
ATOM     24  C   UNL     1     -46.237  -7.823 -32.210  0.00  0.00    +0.000 A 
ENDBRANCH   1  15
BRANCH   1  25
ATOM     25  C   UNL     1     -46.755  -5.901 -34.899  0.00  0.00    +0.000 C 
BRANCH  25  27
ATOM     26  O   UNL     1     -45.005  -6.866 -36.192  0.00  0.00    +0.000 OA
ATOM     27  C   UNL     1     -46.241  -6.820 -35.954  0.00  0.00    +0.000 C 
ATOM     28  N   UNL     1     -47.151  -7.674 -36.651  0.00  0.00    +0.000 N 
ATOM     29  H   UNL     1     -48.110  -7.619 -36.435  0.00  0.00    +0.000 HD
BRANCH  28  30
ATOM     30  C   UNL     1     -46.717  -8.619 -37.668  0.00  0.00    +0.000 C 
BRANCH  30  31
ATOM     31  C   UNL     1     -47.211 -10.015 -37.328  0.00  0.00    +0.000 C 
BRANCH  31  32
ATOM     32  C   UNL     1     -46.126 -10.817 -36.698  0.00  0.00    +0.000 A 
ATOM     33  C   UNL     1     -44.824 -10.309 -36.610  0.00  0.00    +0.000 A 
ATOM     34  C   UNL     1     -43.816 -11.064 -36.003  0.00  0.00    +0.000 A 
ATOM     35  C   UNL     1     -44.107 -12.328 -35.479  0.00  0.00    +0.000 A 
ATOM     36  C   UNL     1     -45.409 -12.836 -35.561  0.00  0.00    +0.000 A 
ATOM     37  C   UNL     1     -46.416 -12.079 -36.167  0.00  0.00    +0.000 A 
BRANCH  36  38
ATOM     38  O   UNL     1     -45.710 -14.088 -35.041  0.00  0.00    +0.000 OA
ATOM     39  H   UNL     1     -45.035 -14.606 -34.646  0.00  0.00    +0.000 HD
ENDBRANCH  36  38
BRANCH  35  40
ATOM     40  O   UNL     1     -43.098 -13.072 -34.879  0.00  0.00    +0.000 OA
ATOM     41  H   UNL     1     -42.840 -13.894 -35.247  0.00  0.00    +0.000 HD
ENDBRANCH  35  40
ENDBRANCH  31  32
ENDBRANCH  30  31
ENDBRANCH  28  30
ENDBRANCH  25  27
ENDBRANCH   1  25
TORSDOF 10
ENDMDL
