MODEL 1
REMARK VINA RESULT:      -6.5      0.000      0.000
REMARK  Name = ZINC000014607688
REMARK  6 active torsions:
REMARK  status: ('A' for Active; 'I' for Inactive)
REMARK    1  A    between atoms: C_1  and  C_32
REMARK    2  A    between atoms: C_7  and  C_17
REMARK    3  A    between atoms: C_10  and  C_11
REMARK    4  A    between atoms: N_19  and  C_21
REMARK    5  A    between atoms: C_23  and  O_27
REMARK    6  A    between atoms: C_26  and  O_29
REMARK                            x       y       z     vdW  Elec       q    Type
REMARK                         _______ _______ _______ _____ _____    ______ ____
ROOT
ATOM      1  C   UNL     1     -43.916 -18.923 -19.657  0.00  0.00    +0.000 A 
ATOM      2  N   UNL     1     -43.499 -19.670 -20.708  0.00  0.00    +0.000 NA
ATOM      3  N   UNL     1     -44.093 -19.177 -21.781  0.00  0.00    +0.000 N 
ATOM      4  C   UNL     1     -44.873 -18.148 -21.447  0.00  0.00    +0.000 A 
ATOM      5  N   UNL     1     -45.592 -17.488 -22.382  0.00  0.00    +0.000 NA
ATOM      6  N   UNL     1     -45.510 -17.880 -23.658  0.00  0.00    +0.000 NA
ATOM      7  C   UNL     1     -44.726 -18.932 -24.048  0.00  0.00    +0.000 A 
ATOM      8  C   UNL     1     -43.974 -19.614 -23.061  0.00  0.00    +0.000 A 
ATOM      9  C   UNL     1     -43.115 -20.796 -23.374  0.00  0.00    +0.000 C 
ATOM     10  C   UNL     1     -44.811 -17.930 -20.084  0.00  0.00    +0.000 A 
ENDROOT
BRANCH  10  11
ATOM     11  C   UNL     1     -45.555 -16.924 -19.286  0.00  0.00    +0.000 A 
ATOM     12  C   UNL     1     -44.890 -15.805 -18.760  0.00  0.00    +0.000 A 
ATOM     13  C   UNL     1     -45.588 -14.848 -18.018  0.00  0.00    +0.000 A 
ATOM     14  C   UNL     1     -46.958 -14.998 -17.795  0.00  0.00    +0.000 A 
ATOM     15  C   UNL     1     -47.631 -16.106 -18.316  0.00  0.00    +0.000 A 
ATOM     16  C   UNL     1     -46.932 -17.062 -19.059  0.00  0.00    +0.000 A 
ENDBRANCH  10  11
BRANCH   7  17
ATOM     17  C   UNL     1     -44.679 -19.301 -25.483  0.00  0.00    +0.000 C 
ATOM     18  O   UNL     1     -45.348 -20.285 -25.897  0.00  0.00    +0.000 OA
ATOM     19  N   UNL     1     -43.820 -18.619 -26.409  0.00  0.00    +0.000 N 
ATOM     20  H   UNL     1     -43.474 -19.150 -27.162  0.00  0.00    +0.000 HD
BRANCH  19  21
ATOM     21  C   UNL     1     -43.415 -17.243 -26.350  0.00  0.00    +0.000 A 
ATOM     22  C   UNL     1     -44.256 -16.245 -26.864  0.00  0.00    +0.000 A 
ATOM     23  C   UNL     1     -43.872 -14.898 -26.860  0.00  0.00    +0.000 A 
ATOM     24  C   UNL     1     -42.620 -14.547 -26.357  0.00  0.00    +0.000 A 
ATOM     25  C   UNL     1     -41.764 -15.530 -25.858  0.00  0.00    +0.000 A 
ATOM     26  C   UNL     1     -42.140 -16.877 -25.845  0.00  0.00    +0.000 A 
BRANCH  23  27
ATOM     27  O   UNL     1     -44.712 -13.895 -27.351  0.00  0.00    +0.000 OA
ATOM     28  C   UNL     1     -45.283 -13.942 -28.651  0.00  0.00    +0.000 C 
ENDBRANCH  23  27
BRANCH  26  29
ATOM     29  O   UNL     1     -41.208 -17.787 -25.321  0.00  0.00    +0.000 OA
ATOM     30  C   UNL     1     -40.809 -17.859 -23.960  0.00  0.00    +0.000 C 
ENDBRANCH  26  29
ENDBRANCH  19  21
ENDBRANCH   7  17
BRANCH   1  32
ATOM     31  C   UNL     1     -42.287 -18.279 -17.918  0.00  0.00    +0.000 C 
ATOM     32  C   UNL     1     -43.455 -19.184 -18.262  0.00  0.00    +0.000 C 
ENDBRANCH   1  32
TORSDOF 6
ENDMDL
MODEL 2
REMARK VINA RESULT:      -6.2      1.111      2.592
REMARK  Name = ZINC000014607688
REMARK  6 active torsions:
REMARK  status: ('A' for Active; 'I' for Inactive)
REMARK    1  A    between atoms: C_1  and  C_32
REMARK    2  A    between atoms: C_7  and  C_17
REMARK    3  A    between atoms: C_10  and  C_11
REMARK    4  A    between atoms: N_19  and  C_21
REMARK    5  A    between atoms: C_23  and  O_27
REMARK    6  A    between atoms: C_26  and  O_29
REMARK                            x       y       z     vdW  Elec       q    Type
REMARK                         _______ _______ _______ _____ _____    ______ ____
ROOT
ATOM      1  C   UNL     1     -43.756 -18.882 -19.551  0.00  0.00    +0.000 A 
ATOM      2  N   UNL     1     -43.304 -19.651 -20.571  0.00  0.00    +0.000 NA
ATOM      3  N   UNL     1     -43.946 -19.254 -21.657  0.00  0.00    +0.000 N 
ATOM      4  C   UNL     1     -44.790 -18.264 -21.360  0.00  0.00    +0.000 A 
ATOM      5  N   UNL     1     -45.566 -17.702 -22.313  0.00  0.00    +0.000 NA
ATOM      6  N   UNL     1     -45.476 -18.151 -23.569  0.00  0.00    +0.000 NA
ATOM      7  C   UNL     1     -44.628 -19.167 -23.922  0.00  0.00    +0.000 A 
ATOM      8  C   UNL     1     -43.817 -19.745 -22.915  0.00  0.00    +0.000 A 
ATOM      9  C   UNL     1     -42.883 -20.881 -23.186  0.00  0.00    +0.000 C 
ATOM     10  C   UNL     1     -44.723 -17.975 -20.010  0.00  0.00    +0.000 A 
ENDROOT
BRANCH  10  11
ATOM     11  C   UNL     1     -45.522 -16.983 -19.249  0.00  0.00    +0.000 A 
ATOM     12  C   UNL     1     -44.912 -15.833 -18.726  0.00  0.00    +0.000 A 
ATOM     13  C   UNL     1     -45.661 -14.888 -18.019  0.00  0.00    +0.000 A 
ATOM     14  C   UNL     1     -47.031 -15.083 -17.829  0.00  0.00    +0.000 A 
ATOM     15  C   UNL     1     -47.651 -16.222 -18.349  0.00  0.00    +0.000 A 
ATOM     16  C   UNL     1     -46.900 -17.165 -19.056  0.00  0.00    +0.000 A 
ENDBRANCH  10  11
BRANCH   7  17
ATOM     17  C   UNL     1     -44.576 -19.603 -25.337  0.00  0.00    +0.000 C 
ATOM     18  O   UNL     1     -45.506 -20.311 -25.806  0.00  0.00    +0.000 OA
ATOM     19  N   UNL     1     -43.447 -19.314 -26.175  0.00  0.00    +0.000 N 
ATOM     20  H   UNL     1     -43.240 -19.971 -26.878  0.00  0.00    +0.000 HD
BRANCH  19  21
ATOM     21  C   UNL     1     -42.589 -18.166 -26.093  0.00  0.00    +0.000 A 
ATOM     22  C   UNL     1     -41.234 -18.328 -25.766  0.00  0.00    +0.000 A 
ATOM     23  C   UNL     1     -40.381 -17.225 -25.636  0.00  0.00    +0.000 A 
ATOM     24  C   UNL     1     -40.895 -15.941 -25.811  0.00  0.00    +0.000 A 
ATOM     25  C   UNL     1     -42.243 -15.761 -26.120  0.00  0.00    +0.000 A 
ATOM     26  C   UNL     1     -43.104 -16.855 -26.264  0.00  0.00    +0.000 A 
BRANCH  23  27
ATOM     27  O   UNL     1     -39.026 -17.379 -25.332  0.00  0.00    +0.000 OA
ATOM     28  C   UNL     1     -38.204 -16.293 -24.926  0.00  0.00    +0.000 C 
ENDBRANCH  23  27
BRANCH  26  29
ATOM     29  O   UNL     1     -44.443 -16.567 -26.575  0.00  0.00    +0.000 OA
ATOM     30  C   UNL     1     -45.132 -15.380 -26.212  0.00  0.00    +0.000 C 
ENDBRANCH  26  29
ENDBRANCH  19  21
ENDBRANCH   7  17
BRANCH   1  32
ATOM     31  C   UNL     1     -42.111 -20.033 -18.115  0.00  0.00    +0.000 C 
ATOM     32  C   UNL     1     -43.258 -19.041 -18.153  0.00  0.00    +0.000 C 
ENDBRANCH   1  32
TORSDOF 6
ENDMDL
MODEL 3
REMARK VINA RESULT:      -6.1     10.647     13.583
REMARK  Name = ZINC000014607688
REMARK  6 active torsions:
REMARK  status: ('A' for Active; 'I' for Inactive)
REMARK    1  A    between atoms: C_1  and  C_32
REMARK    2  A    between atoms: C_7  and  C_17
REMARK    3  A    between atoms: C_10  and  C_11
REMARK    4  A    between atoms: N_19  and  C_21
REMARK    5  A    between atoms: C_23  and  O_27
REMARK    6  A    between atoms: C_26  and  O_29
REMARK                            x       y       z     vdW  Elec       q    Type
REMARK                         _______ _______ _______ _____ _____    ______ ____
ROOT
ATOM      1  C   UNL     1     -47.101  -4.686 -26.442  0.00  0.00    +0.000 A 
ATOM      2  N   UNL     1     -47.276  -4.369 -27.748  0.00  0.00    +0.000 NA
ATOM      3  N   UNL     1     -46.894  -5.424 -28.447  0.00  0.00    +0.000 N 
ATOM      4  C   UNL     1     -46.481  -6.395 -27.630  0.00  0.00    +0.000 A 
ATOM      5  N   UNL     1     -46.031  -7.572 -28.121  0.00  0.00    +0.000 NA
ATOM      6  N   UNL     1     -46.007  -7.755 -29.446  0.00  0.00    +0.000 NA
ATOM      7  C   UNL     1     -46.418  -6.786 -30.323  0.00  0.00    +0.000 A 
ATOM      8  C   UNL     1     -46.891  -5.559 -29.797  0.00  0.00    +0.000 A 
ATOM      9  C   UNL     1     -47.329  -4.425 -30.667  0.00  0.00    +0.000 C 
ATOM     10  C   UNL     1     -46.582  -5.984 -26.315  0.00  0.00    +0.000 A 
ENDROOT
BRANCH  10  11
ATOM     11  C   UNL     1     -46.186  -6.727 -25.093  0.00  0.00    +0.000 A 
ATOM     12  C   UNL     1     -44.830  -6.882 -24.767  0.00  0.00    +0.000 A 
ATOM     13  C   UNL     1     -44.452  -7.571 -23.611  0.00  0.00    +0.000 A 
ATOM     14  C   UNL     1     -45.425  -8.110 -22.768  0.00  0.00    +0.000 A 
ATOM     15  C   UNL     1     -46.778  -7.958 -23.080  0.00  0.00    +0.000 A 
ATOM     16  C   UNL     1     -47.156  -7.269 -24.237  0.00  0.00    +0.000 A 
ENDBRANCH  10  11
BRANCH   7  17
ATOM     17  C   UNL     1     -46.372  -7.067 -31.777  0.00  0.00    +0.000 C 
ATOM     18  O   UNL     1     -47.319  -7.695 -32.321  0.00  0.00    +0.000 OA
ATOM     19  N   UNL     1     -45.232  -6.720 -32.577  0.00  0.00    +0.000 N 
ATOM     20  H   UNL     1     -45.040  -7.302 -33.347  0.00  0.00    +0.000 HD
BRANCH  19  21
ATOM     21  C   UNL     1     -44.344  -5.611 -32.369  0.00  0.00    +0.000 A 
ATOM     22  C   UNL     1     -44.565  -4.403 -33.049  0.00  0.00    +0.000 A 
ATOM     23  C   UNL     1     -43.694  -3.317 -32.901  0.00  0.00    +0.000 A 
ATOM     24  C   UNL     1     -42.573  -3.447 -32.082  0.00  0.00    +0.000 A 
ATOM     25  C   UNL     1     -42.330  -4.647 -31.412  0.00  0.00    +0.000 A 
ATOM     26  C   UNL     1     -43.199  -5.736 -31.541  0.00  0.00    +0.000 A 
BRANCH  23  27
ATOM     27  O   UNL     1     -43.917  -2.104 -33.558  0.00  0.00    +0.000 OA
ATOM     28  C   UNL     1     -43.990  -0.862 -32.870  0.00  0.00    +0.000 C 
ENDBRANCH  23  27
BRANCH  26  29
ATOM     29  O   UNL     1     -42.866  -6.897 -30.826  0.00  0.00    +0.000 OA
ATOM     30  C   UNL     1     -42.492  -6.936 -29.456  0.00  0.00    +0.000 C 
ENDBRANCH  26  29
ENDBRANCH  19  21
ENDBRANCH   7  17
BRANCH   1  32
ATOM     31  C   UNL     1     -47.375  -2.304 -25.851  0.00  0.00    +0.000 C 
ATOM     32  C   UNL     1     -47.426  -3.732 -25.341  0.00  0.00    +0.000 C 
ENDBRANCH   1  32
TORSDOF 6
ENDMDL
