MODEL 1
REMARK VINA RESULT:      -7.3      0.000      0.000
REMARK  Name = ZINC000100261004
REMARK  3 active torsions:
REMARK  status: ('A' for Active; 'I' for Inactive)
REMARK    1  A    between atoms: C_1  and  C_13
REMARK    2  A    between atoms: C_7  and  C_23
REMARK    3  A    between atoms: C_14  and  O_15
REMARK                            x       y       z     vdW  Elec       q    Type
REMARK                         _______ _______ _______ _____ _____    ______ ____
ROOT
ATOM      1  C   UNL     1     -45.739  -7.010 -34.016  0.00  0.00    +0.000 C 
ATOM      2  N   UNL     1     -45.345  -7.991 -34.771  0.00  0.00    +0.000 NA
ATOM      3  N   UNL     1     -45.803  -7.836 -36.086  0.00  0.00    +0.000 N 
ATOM      4  C   UNL     1     -46.571  -6.647 -36.102  0.00  0.00    +0.000 C 
ATOM      5  O   UNL     1     -47.152  -6.192 -37.123  0.00  0.00    +0.000 OA
ATOM      6  C   UNL     1     -46.541  -6.041 -34.789  0.00  0.00    +0.000 C 
ATOM      7  C   UNL     1     -47.073  -4.855 -34.467  0.00  0.00    +0.000 C 
ATOM      8  H   UNL     1     -45.626  -8.434 -36.848  0.00  0.00    +0.000 HD
ENDROOT
BRANCH   1  13
ATOM      9  C   UNL     1     -47.360  -8.191 -29.491  0.00  0.00    +0.000 C 
ATOM     10  N   UNL     1     -46.323  -7.608 -30.343  0.00  0.00    +0.000 N 
ATOM     11  C   UNL     1     -46.505  -7.611 -31.700  0.00  0.00    +0.000 A 
ATOM     12  O   UNL     1     -47.542  -8.135 -32.197  0.00  0.00    +0.000 OA
ATOM     13  C   UNL     1     -45.539  -7.037 -32.552  0.00  0.00    +0.000 A 
ATOM     14  C   UNL     1     -44.367  -6.505 -31.997  0.00  0.00    +0.000 A 
ATOM     15  C   UNL     1     -44.187  -6.517 -30.610  0.00  0.00    +0.000 A 
ATOM     16  C   UNL     1     -43.029  -5.974 -30.037  0.00  0.00    +0.000 A 
ATOM     17  C   UNL     1     -42.858  -5.980 -28.651  0.00  0.00    +0.000 A 
ATOM     18  C   UNL     1     -43.843  -6.526 -27.828  0.00  0.00    +0.000 A 
ATOM     19  C   UNL     1     -45.001  -7.069 -28.389  0.00  0.00    +0.000 A 
ATOM     20  C   UNL     1     -45.192  -7.073 -29.783  0.00  0.00    +0.000 A 
BRANCH  14  21
ATOM     21  O   UNL     1     -43.390  -5.950 -32.822  0.00  0.00    +0.000 OA
ATOM     22  H   UNL     1     -42.573  -5.672 -32.458  0.00  0.00    +0.000 HD
ENDBRANCH  14  21
ENDBRANCH   1  13
BRANCH   7  23
ATOM     23  C   UNL     1     -46.872  -4.124 -33.207  0.00  0.00    +0.000 A 
ATOM     24  C   UNL     1     -47.473  -4.373 -31.975  0.00  0.00    +0.000 A 
ATOM     25  N   UNL     1     -46.961  -3.553 -31.023  0.00  0.00    +0.000 N 
ATOM     26  C   UNL     1     -46.033  -2.815 -31.655  0.00  0.00    +0.000 A 
ATOM     27  C   UNL     1     -45.222  -1.833 -31.089  0.00  0.00    +0.000 A 
ATOM     28  C   UNL     1     -44.297  -1.185 -31.927  0.00  0.00    +0.000 A 
ATOM     29  C   UNL     1     -44.201  -1.530 -33.293  0.00  0.00    +0.000 A 
ATOM     30  C   UNL     1     -45.032  -2.526 -33.837  0.00  0.00    +0.000 A 
ATOM     31  C   UNL     1     -45.938  -3.146 -32.980  0.00  0.00    +0.000 A 
ATOM     32  H   UNL     1     -47.216  -3.507 -30.073  0.00  0.00    +0.000 HD
ENDBRANCH   7  23
TORSDOF 3
ENDMDL
MODEL 2
REMARK VINA RESULT:      -7.1     12.040     15.764
REMARK  Name = ZINC000100261004
REMARK  3 active torsions:
REMARK  status: ('A' for Active; 'I' for Inactive)
REMARK    1  A    between atoms: C_1  and  C_13
REMARK    2  A    between atoms: C_7  and  C_23
REMARK    3  A    between atoms: C_14  and  O_15
REMARK                            x       y       z     vdW  Elec       q    Type
REMARK                         _______ _______ _______ _____ _____    ______ ____
ROOT
ATOM      1  C   UNL     1     -45.295 -15.393 -21.260  0.00  0.00    +0.000 C 
ATOM      2  N   UNL     1     -45.658 -14.260 -20.740  0.00  0.00    +0.000 NA
ATOM      3  N   UNL     1     -46.497 -14.453 -19.634  0.00  0.00    +0.000 N 
ATOM      4  C   UNL     1     -46.667 -15.853 -19.504  0.00  0.00    +0.000 C 
ATOM      5  O   UNL     1     -47.372 -16.402 -18.616  0.00  0.00    +0.000 OA
ATOM      6  C   UNL     1     -45.881 -16.525 -20.516  0.00  0.00    +0.000 C 
ATOM      7  C   UNL     1     -45.723 -17.850 -20.623  0.00  0.00    +0.000 C 
ATOM      8  H   UNL     1     -46.891 -13.756 -19.061  0.00  0.00    +0.000 HD
ENDROOT
BRANCH   1  13
ATOM      9  C   UNL     1     -41.045 -15.922 -23.742  0.00  0.00    +0.000 C 
ATOM     10  N   UNL     1     -42.493 -15.708 -23.757  0.00  0.00    +0.000 N 
ATOM     11  C   UNL     1     -43.169 -15.680 -22.567  0.00  0.00    +0.000 A 
ATOM     12  O   UNL     1     -42.547 -15.865 -21.483  0.00  0.00    +0.000 OA
ATOM     13  C   UNL     1     -44.560 -15.452 -22.541  0.00  0.00    +0.000 A 
ATOM     14  C   UNL     1     -45.252 -15.302 -23.750  0.00  0.00    +0.000 A 
ATOM     15  C   UNL     1     -44.552 -15.342 -24.961  0.00  0.00    +0.000 A 
ATOM     16  C   UNL     1     -45.226 -15.176 -26.179  0.00  0.00    +0.000 A 
ATOM     17  C   UNL     1     -44.521 -15.208 -27.384  0.00  0.00    +0.000 A 
ATOM     18  C   UNL     1     -43.140 -15.404 -27.381  0.00  0.00    +0.000 A 
ATOM     19  C   UNL     1     -42.459 -15.570 -26.173  0.00  0.00    +0.000 A 
ATOM     20  C   UNL     1     -43.151 -15.542 -24.948  0.00  0.00    +0.000 A 
BRANCH  14  21
ATOM     21  O   UNL     1     -46.630 -15.095 -23.748  0.00  0.00    +0.000 OA
ATOM     22  H   UNL     1     -47.168 -15.536 -23.121  0.00  0.00    +0.000 HD
ENDBRANCH  14  21
ENDBRANCH   1  13
BRANCH   7  23
ATOM     23  C   UNL     1     -44.767 -18.544 -21.499  0.00  0.00    +0.000 A 
ATOM     24  C   UNL     1     -43.568 -19.154 -21.135  0.00  0.00    +0.000 A 
ATOM     25  N   UNL     1     -43.010 -19.777 -22.203  0.00  0.00    +0.000 N 
ATOM     26  C   UNL     1     -43.867 -19.575 -23.218  0.00  0.00    +0.000 A 
ATOM     27  C   UNL     1     -43.734 -20.039 -24.526  0.00  0.00    +0.000 A 
ATOM     28  C   UNL     1     -44.759 -19.728 -25.438  0.00  0.00    +0.000 A 
ATOM     29  C   UNL     1     -45.881 -18.974 -25.027  0.00  0.00    +0.000 A 
ATOM     30  C   UNL     1     -45.989 -18.521 -23.701  0.00  0.00    +0.000 A 
ATOM     31  C   UNL     1     -44.955 -18.844 -22.825  0.00  0.00    +0.000 A 
ATOM     32  H   UNL     1     -42.158 -20.271 -22.229  0.00  0.00    +0.000 HD
ENDBRANCH   7  23
TORSDOF 3
ENDMDL
MODEL 3
REMARK VINA RESULT:      -6.8      2.656      5.154
REMARK  Name = ZINC000100261004
REMARK  3 active torsions:
REMARK  status: ('A' for Active; 'I' for Inactive)
REMARK    1  A    between atoms: C_1  and  C_13
REMARK    2  A    between atoms: C_7  and  C_23
REMARK    3  A    between atoms: C_14  and  O_15
REMARK                            x       y       z     vdW  Elec       q    Type
REMARK                         _______ _______ _______ _____ _____    ______ ____
ROOT
ATOM      1  C   UNL     1     -46.327  -4.635 -30.960  0.00  0.00    +0.000 C 
ATOM      2  N   UNL     1     -46.435  -3.345 -31.069  0.00  0.00    +0.000 NA
ATOM      3  N   UNL     1     -46.924  -2.980 -32.331  0.00  0.00    +0.000 N 
ATOM      4  C   UNL     1     -47.099  -4.185 -33.053  0.00  0.00    +0.000 C 
ATOM      5  O   UNL     1     -47.519  -4.246 -34.239  0.00  0.00    +0.000 OA
ATOM      6  C   UNL     1     -46.758  -5.305 -32.203  0.00  0.00    +0.000 C 
ATOM      7  C   UNL     1     -46.905  -6.597 -32.524  0.00  0.00    +0.000 C 
ATOM      8  H   UNL     1     -47.109  -2.068 -32.652  0.00  0.00    +0.000 HD
ENDROOT
BRANCH   1  13
ATOM      9  C   UNL     1     -42.277  -6.535 -28.842  0.00  0.00    +0.000 C 
ATOM     10  N   UNL     1     -43.695  -6.185 -28.756  0.00  0.00    +0.000 N 
ATOM     11  C   UNL     1     -44.294  -5.586 -29.832  0.00  0.00    +0.000 A 
ATOM     12  O   UNL     1     -43.616  -5.320 -30.864  0.00  0.00    +0.000 OA
ATOM     13  C   UNL     1     -45.665  -5.257 -29.795  0.00  0.00    +0.000 A 
ATOM     14  C   UNL     1     -46.397  -5.506 -28.627  0.00  0.00    +0.000 A 
ATOM     15  C   UNL     1     -45.773  -6.110 -27.530  0.00  0.00    +0.000 A 
ATOM     16  C   UNL     1     -46.495  -6.382 -26.360  0.00  0.00    +0.000 A 
ATOM     17  C   UNL     1     -45.869  -6.993 -25.272  0.00  0.00    +0.000 A 
ATOM     18  C   UNL     1     -44.519  -7.338 -25.344  0.00  0.00    +0.000 A 
ATOM     19  C   UNL     1     -43.791  -7.071 -26.506  0.00  0.00    +0.000 A 
ATOM     20  C   UNL     1     -44.403  -6.455 -27.613  0.00  0.00    +0.000 A 
BRANCH  14  21
ATOM     21  O   UNL     1     -47.748  -5.171 -28.562  0.00  0.00    +0.000 OA
ATOM     22  H   UNL     1     -48.003  -4.279 -28.427  0.00  0.00    +0.000 HD
ENDBRANCH  14  21
ENDBRANCH   1  13
BRANCH   7  23
ATOM     23  C   UNL     1     -46.772  -7.741 -31.609  0.00  0.00    +0.000 A 
ATOM     24  C   UNL     1     -47.756  -8.298 -30.795  0.00  0.00    +0.000 A 
ATOM     25  N   UNL     1     -47.284  -9.405 -30.170  0.00  0.00    +0.000 N 
ATOM     26  C   UNL     1     -46.021  -9.548 -30.609  0.00  0.00    +0.000 A 
ATOM     27  C   UNL     1     -45.126 -10.557 -30.258  0.00  0.00    +0.000 A 
ATOM     28  C   UNL     1     -43.850 -10.533 -30.848  0.00  0.00    +0.000 A 
ATOM     29  C   UNL     1     -43.502  -9.518 -31.766  0.00  0.00    +0.000 A 
ATOM     30  C   UNL     1     -44.426  -8.513 -32.103  0.00  0.00    +0.000 A 
ATOM     31  C   UNL     1     -45.681  -8.565 -31.498  0.00  0.00    +0.000 A 
ATOM     32  H   UNL     1     -47.763  -9.980 -29.530  0.00  0.00    +0.000 HD
ENDBRANCH   7  23
TORSDOF 3
ENDMDL
