MODEL 1
REMARK VINA RESULT:      -5.8      0.000      0.000
REMARK  Name = ZINC000096134108 PubChem-97435384
REMARK  9 active torsions:
REMARK  status: ('A' for Active; 'I' for Inactive)
REMARK    1  A    between atoms: C_2  and  O_24
REMARK    2  A    between atoms: C_6  and  C_9
REMARK    3  A    between atoms: C_7  and  O_25
REMARK    4  A    between atoms: C_8  and  O_25
REMARK    5  A    between atoms: C_10  and  C_11
REMARK    6  A    between atoms: C_12  and  C_13
REMARK    7  A    between atoms: C_12  and  N_30
REMARK    8  A    between atoms: C_13  and  C_14
REMARK    9  A    between atoms: C_13  and  N_31
REMARK                            x       y       z     vdW  Elec       q    Type
REMARK                         _______ _______ _______ _____ _____    ______ ____
ROOT
ATOM      1  C   UNL     1     -46.205  -3.345 -31.465  0.00  0.00    +0.000 C 
ATOM      2  O   UNL     1     -45.884  -2.488 -30.599  0.00  0.00    +0.000 OA
ATOM      3  N   UNL     1     -46.317  -4.723 -31.099  0.00  0.00    +0.000 NA
ENDROOT
BRANCH   1   5
ATOM      4  C   UNL     1     -45.478  -2.303 -33.638  0.00  0.00    +0.000 C 
ATOM      5  C   UNL     1     -46.383  -2.909 -32.860  0.00  0.00    +0.000 C 
BRANCH   4  10
ATOM      6  C   UNL     1     -41.695  -2.720 -33.292  0.00  0.00    +0.000 A 
ATOM      7  C   UNL     1     -41.388  -1.501 -32.682  0.00  0.00    +0.000 A 
ATOM      8  C   UNL     1     -42.384  -0.582 -32.375  0.00  0.00    +0.000 A 
ATOM      9  C   UNL     1     -43.708  -0.863 -32.691  0.00  0.00    +0.000 A 
ATOM     10  C   UNL     1     -44.056  -2.064 -33.324  0.00  0.00    +0.000 A 
ATOM     11  C   UNL     1     -43.049  -3.034 -33.595  0.00  0.00    +0.000 A 
BRANCH   6  13
ATOM     12  C   UNL     1     -40.084  -4.532 -32.653  0.00  0.00    +0.000 C 
ATOM     13  O   UNL     1     -40.615  -3.576 -33.558  0.00  0.00    +0.000 OA
ENDBRANCH   6  13
BRANCH  11  14
ATOM     14  O   UNL     1     -43.338  -4.281 -34.175  0.00  0.00    +0.000 OA
BRANCH  14  15
ATOM     15  C   UNL     1     -43.606  -5.479 -33.458  0.00  0.00    +0.000 C 
ATOM     16  F   UNL     1     -43.417  -5.257 -32.107  0.00  0.00    +0.000 F 
ATOM     17  F   UNL     1     -44.912  -5.873 -33.679  0.00  0.00    +0.000 F 
ENDBRANCH  14  15
ENDBRANCH  11  14
ENDBRANCH   4  10
ENDBRANCH   1   5
BRANCH   3  18
ATOM     18  C   UNL     1     -46.056  -5.206 -29.751  0.00  0.00    +0.000 C 
BRANCH  18  19
ATOM     19  C   UNL     1     -46.554  -6.642 -29.596  0.00  0.00    +0.000 C 
BRANCH  19  20
ATOM     20  C   UNL     1     -46.179  -7.501 -30.779  0.00  0.00    +0.000 A 
ATOM     21  C   UNL     1     -47.118  -7.859 -31.760  0.00  0.00    +0.000 A 
ATOM     22  C   UNL     1     -46.740  -8.669 -32.834  0.00  0.00    +0.000 A 
ATOM     23  C   UNL     1     -45.425  -9.132 -32.931  0.00  0.00    +0.000 A 
ATOM     24  C   UNL     1     -44.489  -8.789 -31.952  0.00  0.00    +0.000 A 
ATOM     25  C   UNL     1     -44.866  -7.977 -30.877  0.00  0.00    +0.000 A 
ATOM     26 CL   UNL     1     -44.952 -10.147 -34.275  0.00  0.00    +0.000 Cl
ENDBRANCH  19  20
BRANCH  19  32
ATOM     27  C   UNL     1     -46.332  -6.164 -27.256  0.00  0.00    +0.000 C 
ATOM     28  C   UNL     1     -46.046  -6.763 -25.877  0.00  0.00    +0.000 C 
ATOM     29  C   UNL     1     -46.706  -8.829 -26.518  0.00  0.00    +0.000 C 
ATOM     30  C   UNL     1     -47.036  -8.364 -27.938  0.00  0.00    +0.000 C 
ATOM     31  O   UNL     1     -46.968  -7.791 -25.605  0.00  0.00    +0.000 OA
ATOM     32  N   UNL     1     -46.201  -7.206 -28.280  0.00  0.00    +0.000 NA
ENDBRANCH  19  32
ENDBRANCH  18  19
ENDBRANCH   3  18
TORSDOF 9
ENDMDL
MODEL 2
REMARK VINA RESULT:      -5.7      2.466      3.836
REMARK  Name = ZINC000096134108 PubChem-97435384
REMARK  9 active torsions:
REMARK  status: ('A' for Active; 'I' for Inactive)
REMARK    1  A    between atoms: C_2  and  O_24
REMARK    2  A    between atoms: C_6  and  C_9
REMARK    3  A    between atoms: C_7  and  O_25
REMARK    4  A    between atoms: C_8  and  O_25
REMARK    5  A    between atoms: C_10  and  C_11
REMARK    6  A    between atoms: C_12  and  C_13
REMARK    7  A    between atoms: C_12  and  N_30
REMARK    8  A    between atoms: C_13  and  C_14
REMARK    9  A    between atoms: C_13  and  N_31
REMARK                            x       y       z     vdW  Elec       q    Type
REMARK                         _______ _______ _______ _____ _____    ______ ____
ROOT
ATOM      1  C   UNL     1     -46.769  -5.837 -29.355  0.00  0.00    +0.000 C 
ATOM      2  O   UNL     1     -45.675  -5.503 -28.826  0.00  0.00    +0.000 OA
ATOM      3  N   UNL     1     -47.185  -7.205 -29.336  0.00  0.00    +0.000 NA
ENDROOT
BRANCH   1   5
ATOM      4  C   UNL     1     -47.337  -4.315 -31.279  0.00  0.00    +0.000 C 
ATOM      5  C   UNL     1     -47.559  -4.809 -30.055  0.00  0.00    +0.000 C 
BRANCH   4  10
ATOM      6  C   UNL     1     -44.111  -4.772 -33.276  0.00  0.00    +0.000 A 
ATOM      7  C   UNL     1     -44.534  -5.763 -34.166  0.00  0.00    +0.000 A 
ATOM      8  C   UNL     1     -45.835  -6.251 -34.129  0.00  0.00    +0.000 A 
ATOM      9  C   UNL     1     -46.731  -5.765 -33.184  0.00  0.00    +0.000 A 
ATOM     10  C   UNL     1     -46.340  -4.788 -32.260  0.00  0.00    +0.000 A 
ATOM     11  C   UNL     1     -45.026  -4.244 -32.324  0.00  0.00    +0.000 A 
BRANCH   6  13
ATOM     12  C   UNL     1     -42.328  -3.286 -34.224  0.00  0.00    +0.000 C 
ATOM     13  O   UNL     1     -42.778  -4.349 -33.399  0.00  0.00    +0.000 OA
ENDBRANCH   6  13
BRANCH  11  14
ATOM     14  O   UNL     1     -44.588  -3.223 -31.463  0.00  0.00    +0.000 OA
BRANCH  14  15
ATOM     15  C   UNL     1     -44.622  -1.832 -31.754  0.00  0.00    +0.000 C 
ATOM     16  F   UNL     1     -45.178  -1.638 -33.004  0.00  0.00    +0.000 F 
ATOM     17  F   UNL     1     -45.387  -1.176 -30.807  0.00  0.00    +0.000 F 
ENDBRANCH  14  15
ENDBRANCH  11  14
ENDBRANCH   4  10
ENDBRANCH   1   5
BRANCH   3  18
ATOM     18  C   UNL     1     -46.386  -8.265 -28.737  0.00  0.00    +0.000 C 
BRANCH  18  19
ATOM     19  C   UNL     1     -46.483  -9.539 -29.574  0.00  0.00    +0.000 C 
BRANCH  19  20
ATOM     20  C   UNL     1     -45.655  -9.452 -30.833  0.00  0.00    +0.000 A 
ATOM     21  C   UNL     1     -44.353  -8.925 -30.828  0.00  0.00    +0.000 A 
ATOM     22  C   UNL     1     -43.621  -8.845 -32.016  0.00  0.00    +0.000 A 
ATOM     23  C   UNL     1     -44.187  -9.286 -33.215  0.00  0.00    +0.000 A 
ATOM     24  C   UNL     1     -45.485  -9.802 -33.229  0.00  0.00    +0.000 A 
ATOM     25  C   UNL     1     -46.218  -9.882 -32.040  0.00  0.00    +0.000 A 
ATOM     26 CL   UNL     1     -43.270  -9.186 -34.703  0.00  0.00    +0.000 Cl
ENDBRANCH  19  20
BRANCH  19  32
ATOM     27  C   UNL     1     -46.722 -10.506 -27.392  0.00  0.00    +0.000 C 
ATOM     28  C   UNL     1     -46.563 -11.782 -26.564  0.00  0.00    +0.000 C 
ATOM     29  C   UNL     1     -46.753 -13.115 -28.382  0.00  0.00    +0.000 C 
ATOM     30  C   UNL     1     -46.926 -11.924 -29.328  0.00  0.00    +0.000 C 
ATOM     31  O   UNL     1     -47.329 -12.816 -27.133  0.00  0.00    +0.000 OA
ATOM     32  N   UNL     1     -46.255 -10.747 -28.761  0.00  0.00    +0.000 NA
ENDBRANCH  19  32
ENDBRANCH  18  19
ENDBRANCH   3  18
TORSDOF 9
ENDMDL
MODEL 3
REMARK VINA RESULT:      -5.7      2.525      3.881
REMARK  Name = ZINC000096134108 PubChem-97435384
REMARK  9 active torsions:
REMARK  status: ('A' for Active; 'I' for Inactive)
REMARK    1  A    between atoms: C_2  and  O_24
REMARK    2  A    between atoms: C_6  and  C_9
REMARK    3  A    between atoms: C_7  and  O_25
REMARK    4  A    between atoms: C_8  and  O_25
REMARK    5  A    between atoms: C_10  and  C_11
REMARK    6  A    between atoms: C_12  and  C_13
REMARK    7  A    between atoms: C_12  and  N_30
REMARK    8  A    between atoms: C_13  and  C_14
REMARK    9  A    between atoms: C_13  and  N_31
REMARK                            x       y       z     vdW  Elec       q    Type
REMARK                         _______ _______ _______ _____ _____    ______ ____
ROOT
ATOM      1  C   UNL     1     -46.495  -3.304 -31.354  0.00  0.00    +0.000 C 
ATOM      2  O   UNL     1     -46.097  -2.343 -30.643  0.00  0.00    +0.000 OA
ATOM      3  N   UNL     1     -46.808  -4.561 -30.746  0.00  0.00    +0.000 NA
ENDROOT
BRANCH   1   5
ATOM      4  C   UNL     1     -45.610  -2.594 -33.601  0.00  0.00    +0.000 C 
ATOM      5  C   UNL     1     -46.553  -3.127 -32.815  0.00  0.00    +0.000 C 
BRANCH   4  10
ATOM      6  C   UNL     1     -41.877  -2.666 -32.787  0.00  0.00    +0.000 A 
ATOM      7  C   UNL     1     -41.696  -1.325 -32.437  0.00  0.00    +0.000 A 
ATOM      8  C   UNL     1     -42.760  -0.432 -32.447  0.00  0.00    +0.000 A 
ATOM      9  C   UNL     1     -44.025  -0.865 -32.826  0.00  0.00    +0.000 A 
ATOM     10  C   UNL     1     -44.245  -2.196 -33.205  0.00  0.00    +0.000 A 
ATOM     11  C   UNL     1     -43.172  -3.130 -33.148  0.00  0.00    +0.000 A 
BRANCH   6  13
ATOM     12  C   UNL     1     -39.453  -3.129 -33.233  0.00  0.00    +0.000 C 
ATOM     13  O   UNL     1     -40.737  -3.484 -32.742  0.00  0.00    +0.000 OA
ENDBRANCH   6  13
BRANCH  11  14
ATOM     14  O   UNL     1     -43.338  -4.490 -33.460  0.00  0.00    +0.000 OA
BRANCH  14  15
ATOM     15  C   UNL     1     -43.629  -5.519 -32.523  0.00  0.00    +0.000 C 
ATOM     16  F   UNL     1     -43.635  -4.990 -31.247  0.00  0.00    +0.000 F 
ATOM     17  F   UNL     1     -44.870  -6.062 -32.799  0.00  0.00    +0.000 F 
ENDBRANCH  14  15
ENDBRANCH  11  14
ENDBRANCH   4  10
ENDBRANCH   1   5
BRANCH   3  18
ATOM     18  C   UNL     1     -46.672  -4.803 -29.317  0.00  0.00    +0.000 C 
BRANCH  18  19
ATOM     19  C   UNL     1     -45.760  -6.001 -29.067  0.00  0.00    +0.000 C 
BRANCH  19  20
ATOM     20  C   UNL     1     -45.584  -6.281 -27.594  0.00  0.00    +0.000 A 
ATOM     21  C   UNL     1     -44.520  -7.061 -27.111  0.00  0.00    +0.000 A 
ATOM     22  C   UNL     1     -44.397  -7.314 -25.742  0.00  0.00    +0.000 A 
ATOM     23  C   UNL     1     -45.336  -6.792 -24.849  0.00  0.00    +0.000 A 
ATOM     24  C   UNL     1     -46.402  -6.023 -25.324  0.00  0.00    +0.000 A 
ATOM     25  C   UNL     1     -46.526  -5.770 -26.694  0.00  0.00    +0.000 A 
ATOM     26 CL   UNL     1     -45.182  -7.108 -23.135  0.00  0.00    +0.000 Cl
ENDBRANCH  19  20
BRANCH  19  32
ATOM     27  C   UNL     1     -44.984  -8.035 -30.077  0.00  0.00    +0.000 C 
ATOM     28  C   UNL     1     -45.403  -9.287 -30.850  0.00  0.00    +0.000 C 
ATOM     29  C   UNL     1     -47.528  -9.183 -30.084  0.00  0.00    +0.000 C 
ATOM     30  C   UNL     1     -47.248  -7.924 -29.260  0.00  0.00    +0.000 C 
ATOM     31  O   UNL     1     -46.378  -9.992 -30.120  0.00  0.00    +0.000 OA
ATOM     32  N   UNL     1     -46.151  -7.167 -29.879  0.00  0.00    +0.000 NA
ENDBRANCH  19  32
ENDBRANCH  18  19
ENDBRANCH   3  18
TORSDOF 9
ENDMDL
