MODEL 1
REMARK VINA RESULT:      -6.4      0.000      0.000
REMARK  Name = ZINC000004878449 PubChem-12923698
REMARK  9 active torsions:
REMARK  status: ('A' for Active; 'I' for Inactive)
REMARK    1  A    between atoms: N_17  and  C_20
REMARK    2  A    between atoms: C_20  and  C_21
REMARK    3  A    between atoms: C_21  and  O_22
REMARK    4  A    between atoms: C_21  and  C_24
REMARK    5  A    between atoms: C_24  and  O_25
REMARK    6  A    between atoms: C_24  and  C_27
REMARK    7  A    between atoms: C_27  and  O_28
REMARK    8  A    between atoms: C_27  and  C_30
REMARK    9  A    between atoms: C_30  and  O_31
REMARK                            x       y       z     vdW  Elec       q    Type
REMARK                         _______ _______ _______ _____ _____    ______ ____
ROOT
ATOM      1  C   UNL     1     -47.511 -13.365 -20.226  0.00  0.00    +0.000 C 
ATOM      2  C   UNL     1     -46.831 -14.691 -20.292  0.00  0.00    +0.000 A 
ATOM      3  C   UNL     1     -46.789 -15.552 -19.181  0.00  0.00    +0.000 A 
ATOM      4  C   UNL     1     -46.141 -16.785 -19.282  0.00  0.00    +0.000 A 
ATOM      5  C   UNL     1     -45.525 -17.187 -20.481  0.00  0.00    +0.000 A 
ATOM      6  C   UNL     1     -45.577 -16.309 -21.594  0.00  0.00    +0.000 A 
ATOM      7  C   UNL     1     -46.225 -15.076 -21.490  0.00  0.00    +0.000 A 
ATOM      8  C   UNL     1     -44.984 -16.663 -22.804  0.00  0.00    +0.000 A 
ATOM      9  C   UNL     1     -44.339 -17.887 -22.919  0.00  0.00    +0.000 A 
ATOM     10  C   UNL     1     -43.722 -18.320 -24.094  0.00  0.00    +0.000 A 
ATOM     11  O   UNL     1     -43.722 -17.599 -25.128  0.00  0.00    +0.000 OA
ATOM     12  N   UNL     1     -43.113 -19.535 -24.124  0.00  0.00    +0.000 N 
ATOM     13  C   UNL     1     -43.083 -20.357 -23.039  0.00  0.00    +0.000 A 
ATOM     14  O   UNL     1     -42.506 -21.472 -23.117  0.00  0.00    +0.000 OA
ATOM     15  N   UNL     1     -43.667 -19.983 -21.870  0.00  0.00    +0.000 NA
ATOM     16  C   UNL     1     -44.297 -18.784 -21.749  0.00  0.00    +0.000 A 
ATOM     17  N   UNL     1     -44.887 -18.402 -20.575  0.00  0.00    +0.000 N 
ATOM     18  C   UNL     1     -47.422 -15.182 -17.882  0.00  0.00    +0.000 C 
ATOM     19  H   UNL     1     -42.681 -19.831 -24.957  0.00  0.00    +0.000 HD
ENDROOT
BRANCH  17  20
ATOM     20  C   UNL     1     -44.820 -19.300 -19.417  0.00  0.00    +0.000 C 
BRANCH  20  21
ATOM     21  C   UNL     1     -43.546 -19.057 -18.621  0.00  0.00    +0.000 C 
BRANCH  21  22
ATOM     22  O   UNL     1     -42.609 -18.381 -19.408  0.00  0.00    +0.000 OA
ATOM     23  H   UNL     1     -42.084 -17.787 -18.848  0.00  0.00    +0.000 HD
ENDBRANCH  21  22
BRANCH  21  24
ATOM     24  C   UNL     1     -42.981 -20.389 -18.121  0.00  0.00    +0.000 C 
BRANCH  24  25
ATOM     25  O   UNL     1     -43.931 -21.410 -18.215  0.00  0.00    +0.000 OA
ATOM     26  H   UNL     1     -44.592 -21.177 -18.885  0.00  0.00    +0.000 HD
ENDBRANCH  24  25
BRANCH  24  27
ATOM     27  C   UNL     1     -41.678 -20.794 -18.814  0.00  0.00    +0.000 C 
BRANCH  27  28
ATOM     28  O   UNL     1     -41.955 -21.466 -20.006  0.00  0.00    +0.000 OA
ATOM     29  H   UNL     1     -41.427 -21.081 -20.724  0.00  0.00    +0.000 HD
ENDBRANCH  27  28
BRANCH  27  30
ATOM     30  C   UNL     1     -40.785 -21.646 -17.924  0.00  0.00    +0.000 C 
BRANCH  30  31
ATOM     31  O   UNL     1     -41.410 -21.865 -16.697  0.00  0.00    +0.000 OA
ATOM     32  H   UNL     1     -41.202 -22.758 -16.382  0.00  0.00    +0.000 HD
ENDBRANCH  30  31
ENDBRANCH  27  30
ENDBRANCH  24  27
ENDBRANCH  21  24
ENDBRANCH  20  21
ENDBRANCH  17  20
TORSDOF 9
ENDMDL
MODEL 2
REMARK VINA RESULT:      -6.0      1.686      2.041
REMARK  Name = ZINC000004878449 PubChem-12923698
REMARK  9 active torsions:
REMARK  status: ('A' for Active; 'I' for Inactive)
REMARK    1  A    between atoms: N_17  and  C_20
REMARK    2  A    between atoms: C_20  and  C_21
REMARK    3  A    between atoms: C_21  and  O_22
REMARK    4  A    between atoms: C_21  and  C_24
REMARK    5  A    between atoms: C_24  and  O_25
REMARK    6  A    between atoms: C_24  and  C_27
REMARK    7  A    between atoms: C_27  and  O_28
REMARK    8  A    between atoms: C_27  and  C_30
REMARK    9  A    between atoms: C_30  and  O_31
REMARK                            x       y       z     vdW  Elec       q    Type
REMARK                         _______ _______ _______ _____ _____    ______ ____
ROOT
ATOM      1  C   UNL     1     -46.514 -12.458 -19.517  0.00  0.00    +0.000 C 
ATOM      2  C   UNL     1     -46.277 -13.825 -20.064  0.00  0.00    +0.000 A 
ATOM      3  C   UNL     1     -46.216 -14.951 -19.225  0.00  0.00    +0.000 A 
ATOM      4  C   UNL     1     -45.991 -16.215 -19.774  0.00  0.00    +0.000 A 
ATOM      5  C   UNL     1     -45.822 -16.387 -21.160  0.00  0.00    +0.000 A 
ATOM      6  C   UNL     1     -45.887 -15.241 -21.995  0.00  0.00    +0.000 A 
ATOM      7  C   UNL     1     -46.112 -13.978 -21.442  0.00  0.00    +0.000 A 
ATOM      8  C   UNL     1     -45.729 -15.359 -23.373  0.00  0.00    +0.000 A 
ATOM      9  C   UNL     1     -45.507 -16.610 -23.934  0.00  0.00    +0.000 A 
ATOM     10  C   UNL     1     -45.340 -16.817 -25.304  0.00  0.00    +0.000 A 
ATOM     11  O   UNL     1     -45.382 -15.852 -26.113  0.00  0.00    +0.000 OA
ATOM     12  N   UNL     1     -45.128 -18.076 -25.771  0.00  0.00    +0.000 N 
ATOM     13  C   UNL     1     -45.074 -19.156 -24.944  0.00  0.00    +0.000 A 
ATOM     14  O   UNL     1     -44.876 -20.301 -25.426  0.00  0.00    +0.000 OA
ATOM     15  N   UNL     1     -45.229 -19.010 -23.602  0.00  0.00    +0.000 NA
ATOM     16  C   UNL     1     -45.442 -17.788 -23.047  0.00  0.00    +0.000 A 
ATOM     17  N   UNL     1     -45.599 -17.634 -21.696  0.00  0.00    +0.000 N 
ATOM     18  C   UNL     1     -46.386 -14.834 -17.747  0.00  0.00    +0.000 C 
ATOM     19  H   UNL     1     -45.012 -18.212 -26.739  0.00  0.00    +0.000 HD
ENDROOT
BRANCH  17  20
ATOM     20  C   UNL     1     -45.514 -18.814 -20.829  0.00  0.00    +0.000 C 
BRANCH  20  21
ATOM     21  C   UNL     1     -44.073 -19.075 -20.415  0.00  0.00    +0.000 C 
BRANCH  21  22
ATOM     22  O   UNL     1     -43.473 -19.972 -21.303  0.00  0.00    +0.000 OA
ATOM     23  H   UNL     1     -42.793 -20.483 -20.835  0.00  0.00    +0.000 HD
ENDBRANCH  21  22
BRANCH  21  24
ATOM     24  C   UNL     1     -44.033 -19.613 -18.983  0.00  0.00    +0.000 C 
BRANCH  24  25
ATOM     25  O   UNL     1     -45.209 -20.299 -18.664  0.00  0.00    +0.000 OA
ATOM     26  H   UNL     1     -44.991 -21.103 -18.170  0.00  0.00    +0.000 HD
ENDBRANCH  24  25
BRANCH  24  27
ATOM     27  C   UNL     1     -42.804 -20.479 -18.694  0.00  0.00    +0.000 C 
BRANCH  27  28
ATOM     28  O   UNL     1     -43.200 -21.761 -18.306  0.00  0.00    +0.000 OA
ATOM     29  H   UNL     1     -43.885 -22.085 -18.913  0.00  0.00    +0.000 HD
ENDBRANCH  27  28
BRANCH  27  30
ATOM     30  C   UNL     1     -41.894 -19.867 -17.639  0.00  0.00    +0.000 C 
BRANCH  30  31
ATOM     31  O   UNL     1     -42.510 -18.752 -17.071  0.00  0.00    +0.000 OA
ATOM     32  H   UNL     1     -42.521 -18.843 -16.106  0.00  0.00    +0.000 HD
ENDBRANCH  30  31
ENDBRANCH  27  30
ENDBRANCH  24  27
ENDBRANCH  21  24
ENDBRANCH  20  21
ENDBRANCH  17  20
TORSDOF 9
ENDMDL
MODEL 3
REMARK VINA RESULT:      -5.8      2.954      6.506
REMARK  Name = ZINC000004878449 PubChem-12923698
REMARK  9 active torsions:
REMARK  status: ('A' for Active; 'I' for Inactive)
REMARK    1  A    between atoms: N_17  and  C_20
REMARK    2  A    between atoms: C_20  and  C_21
REMARK    3  A    between atoms: C_21  and  O_22
REMARK    4  A    between atoms: C_21  and  C_24
REMARK    5  A    between atoms: C_24  and  O_25
REMARK    6  A    between atoms: C_24  and  C_27
REMARK    7  A    between atoms: C_27  and  O_28
REMARK    8  A    between atoms: C_27  and  C_30
REMARK    9  A    between atoms: C_30  and  O_31
REMARK                            x       y       z     vdW  Elec       q    Type
REMARK                         _______ _______ _______ _____ _____    ______ ____
ROOT
ATOM      1  C   UNL     1     -46.283 -14.995 -17.918  0.00  0.00    +0.000 C 
ATOM      2  C   UNL     1     -46.159 -15.267 -19.379  0.00  0.00    +0.000 A 
ATOM      3  C   UNL     1     -46.639 -14.359 -20.340  0.00  0.00    +0.000 A 
ATOM      4  C   UNL     1     -46.505 -14.651 -21.699  0.00  0.00    +0.000 A 
ATOM      5  C   UNL     1     -45.896 -15.842 -22.131  0.00  0.00    +0.000 A 
ATOM      6  C   UNL     1     -45.415 -16.748 -21.151  0.00  0.00    +0.000 A 
ATOM      7  C   UNL     1     -45.551 -16.454 -19.792  0.00  0.00    +0.000 A 
ATOM      8  C   UNL     1     -44.802 -17.940 -21.528  0.00  0.00    +0.000 A 
ATOM      9  C   UNL     1     -44.659 -18.242 -22.876  0.00  0.00    +0.000 A 
ATOM     10  C   UNL     1     -44.056 -19.412 -23.340  0.00  0.00    +0.000 A 
ATOM     11  O   UNL     1     -43.604 -20.269 -22.535  0.00  0.00    +0.000 OA
ATOM     12  N   UNL     1     -43.956 -19.629 -24.678  0.00  0.00    +0.000 N 
ATOM     13  C   UNL     1     -44.425 -18.739 -25.595  0.00  0.00    +0.000 A 
ATOM     14  O   UNL     1     -44.308 -18.987 -26.822  0.00  0.00    +0.000 OA
ATOM     15  N   UNL     1     -45.022 -17.584 -25.197  0.00  0.00    +0.000 NA
ATOM     16  C   UNL     1     -45.168 -17.285 -23.878  0.00  0.00    +0.000 A 
ATOM     17  N   UNL     1     -45.768 -16.125 -23.471  0.00  0.00    +0.000 N 
ATOM     18  C   UNL     1     -47.296 -13.079 -19.944  0.00  0.00    +0.000 C 
ATOM     19  H   UNL     1     -43.528 -20.458 -24.996  0.00  0.00    +0.000 HD
ENDROOT
BRANCH  17  20
ATOM     20  C   UNL     1     -46.282 -15.195 -24.482  0.00  0.00    +0.000 C 
BRANCH  20  21
ATOM     21  C   UNL     1     -45.348 -14.005 -24.641  0.00  0.00    +0.000 C 
BRANCH  21  22
ATOM     22  O   UNL     1     -46.087 -12.821 -24.722  0.00  0.00    +0.000 OA
ATOM     23  H   UNL     1     -45.859 -12.246 -23.974  0.00  0.00    +0.000 HD
ENDBRANCH  21  22
BRANCH  21  24
ATOM     24  C   UNL     1     -44.475 -14.190 -25.885  0.00  0.00    +0.000 C 
BRANCH  24  25
ATOM     25  O   UNL     1     -43.301 -14.886 -25.583  0.00  0.00    +0.000 OA
ATOM     26  H   UNL     1     -42.537 -14.306 -25.719  0.00  0.00    +0.000 HD
ENDBRANCH  24  25
BRANCH  24  27
ATOM     27  C   UNL     1     -45.213 -14.850 -27.052  0.00  0.00    +0.000 C 
BRANCH  27  28
ATOM     28  O   UNL     1     -44.426 -15.860 -27.610  0.00  0.00    +0.000 OA
ATOM     29  H   UNL     1     -43.857 -16.242 -26.922  0.00  0.00    +0.000 HD
ENDBRANCH  27  28
BRANCH  27  30
ATOM     30  C   UNL     1     -45.624 -13.851 -28.123  0.00  0.00    +0.000 C 
BRANCH  30  31
ATOM     31  O   UNL     1     -46.794 -13.197 -27.737  0.00  0.00    +0.000 OA
ATOM     32  H   UNL     1     -46.568 -12.399 -27.235  0.00  0.00    +0.000 HD
ENDBRANCH  30  31
ENDBRANCH  27  30
ENDBRANCH  24  27
ENDBRANCH  21  24
ENDBRANCH  20  21
ENDBRANCH  17  20
TORSDOF 9
ENDMDL
