MODEL 1
REMARK VINA RESULT:      -7.8      0.000      0.000
REMARK  Name = ZINC000021907259
REMARK  4 active torsions:
REMARK  status: ('A' for Active; 'I' for Inactive)
REMARK    1  A    between atoms: C_2  and  C_5
REMARK    2  A    between atoms: N_3  and  C_17
REMARK    3  A    between atoms: N_21  and  C_22
REMARK    4  A    between atoms: C_22  and  C_23
REMARK                            x       y       z     vdW  Elec       q    Type
REMARK                         _______ _______ _______ _____ _____    ______ ____
ROOT
ATOM      1  O   UNL     1     -47.734  -4.110 -29.145  0.00  0.00    +0.000 OA
ATOM      2  C   UNL     1     -46.989  -4.980 -28.618  0.00  0.00    +0.000 C 
ATOM      3  N   UNL     1     -46.216  -5.857 -29.450  0.00  0.00    +0.000 N 
ATOM      4  H   UNL     1     -45.670  -6.540 -28.997  0.00  0.00    +0.000 HD
ENDROOT
BRANCH   2   5
ATOM      5  C   UNL     1     -46.900  -5.110 -27.140  0.00  0.00    +0.000 A 
ATOM      6  C   UNL     1     -46.606  -6.375 -26.612  0.00  0.00    +0.000 A 
ATOM      7  C   UNL     1     -46.505  -6.564 -25.236  0.00  0.00    +0.000 A 
ATOM      8  O   UNL     1     -46.241  -7.705 -24.777  0.00  0.00    +0.000 OA
ATOM      9  N   UNL     1     -46.692  -5.520 -24.389  0.00  0.00    +0.000 N 
ATOM     10  C   UNL     1     -46.980  -4.274 -24.845  0.00  0.00    +0.000 A 
ATOM     11  C   UNL     1     -47.166  -3.233 -23.932  0.00  0.00    +0.000 A 
ATOM     12  C   UNL     1     -47.468  -1.947 -24.385  0.00  0.00    +0.000 A 
ATOM     13  C   UNL     1     -47.586  -1.698 -25.754  0.00  0.00    +0.000 A 
ATOM     14  C   UNL     1     -47.400  -2.733 -26.672  0.00  0.00    +0.000 A 
ATOM     15  C   UNL     1     -47.094  -4.032 -26.238  0.00  0.00    +0.000 A 
ATOM     16  H   UNL     1     -46.616  -5.670 -23.419  0.00  0.00    +0.000 HD
ENDBRANCH   2   5
BRANCH   3  17
ATOM     17  C   UNL     1     -46.167  -5.826 -30.882  0.00  0.00    +0.000 A 
ATOM     18  C   UNL     1     -47.076  -6.401 -31.750  0.00  0.00    +0.000 A 
ATOM     19  C   UNL     1     -46.576  -6.070 -33.005  0.00  0.00    +0.000 A 
ATOM     20  N   UNL     1     -45.445  -5.346 -32.870  0.00  0.00    +0.000 NA
ATOM     21  N   UNL     1     -45.209  -5.200 -31.579  0.00  0.00    +0.000 N 
BRANCH  21  22
ATOM     22  C   UNL     1     -44.051  -4.502 -31.038  0.00  0.00    +0.000 C 
BRANCH  22  23
ATOM     23  C   UNL     1     -44.035  -3.080 -31.504  0.00  0.00    +0.000 A 
ATOM     24  C   UNL     1     -45.102  -2.240 -31.161  0.00  0.00    +0.000 A 
ATOM     25  C   UNL     1     -45.121  -0.911 -31.592  0.00  0.00    +0.000 A 
ATOM     26  C   UNL     1     -44.072  -0.414 -32.369  0.00  0.00    +0.000 A 
ATOM     27  C   UNL     1     -43.003  -1.246 -32.714  0.00  0.00    +0.000 A 
ATOM     28  C   UNL     1     -42.978  -2.576 -32.286  0.00  0.00    +0.000 A 
ATOM     29 CL   UNL     1     -41.601  -3.572 -32.726  0.00  0.00    +0.000 Cl
ENDBRANCH  22  23
ENDBRANCH  21  22
ENDBRANCH   3  17
TORSDOF 4
ENDMDL
MODEL 2
REMARK VINA RESULT:      -7.4      1.992      2.310
REMARK  Name = ZINC000021907259
REMARK  4 active torsions:
REMARK  status: ('A' for Active; 'I' for Inactive)
REMARK    1  A    between atoms: C_2  and  C_5
REMARK    2  A    between atoms: N_3  and  C_17
REMARK    3  A    between atoms: N_21  and  C_22
REMARK    4  A    between atoms: C_22  and  C_23
REMARK                            x       y       z     vdW  Elec       q    Type
REMARK                         _______ _______ _______ _____ _____    ______ ____
ROOT
ATOM      1  O   UNL     1     -45.116  -6.739 -28.263  0.00  0.00    +0.000 OA
ATOM      2  C   UNL     1     -46.296  -6.565 -27.856  0.00  0.00    +0.000 C 
ATOM      3  N   UNL     1     -47.393  -6.684 -28.774  0.00  0.00    +0.000 N 
ATOM      4  H   UNL     1     -48.296  -6.512 -28.420  0.00  0.00    +0.000 HD
ENDROOT
BRANCH   2   5
ATOM      5  C   UNL     1     -46.569  -6.236 -26.432  0.00  0.00    +0.000 A 
ATOM      6  C   UNL     1     -46.482  -7.275 -25.494  0.00  0.00    +0.000 A 
ATOM      7  C   UNL     1     -46.724  -7.034 -24.144  0.00  0.00    +0.000 A 
ATOM      8  O   UNL     1     -46.642  -7.976 -23.314  0.00  0.00    +0.000 OA
ATOM      9  N   UNL     1     -47.047  -5.785 -23.721  0.00  0.00    +0.000 N 
ATOM     10  C   UNL     1     -47.146  -4.743 -24.586  0.00  0.00    +0.000 A 
ATOM     11  C   UNL     1     -47.484  -3.477 -24.102  0.00  0.00    +0.000 A 
ATOM     12  C   UNL     1     -47.595  -2.396 -24.978  0.00  0.00    +0.000 A 
ATOM     13  C   UNL     1     -47.369  -2.577 -26.344  0.00  0.00    +0.000 A 
ATOM     14  C   UNL     1     -47.030  -3.840 -26.836  0.00  0.00    +0.000 A 
ATOM     15  C   UNL     1     -46.911  -4.939 -25.971  0.00  0.00    +0.000 A 
ATOM     16  H   UNL     1     -47.213  -5.631 -22.764  0.00  0.00    +0.000 HD
ENDBRANCH   2   5
BRANCH   3  17
ATOM     17  C   UNL     1     -47.291  -7.034 -30.160  0.00  0.00    +0.000 A 
ATOM     18  C   UNL     1     -47.409  -8.299 -30.702  0.00  0.00    +0.000 A 
ATOM     19  C   UNL     1     -47.242  -8.083 -32.066  0.00  0.00    +0.000 A 
ATOM     20  N   UNL     1     -47.039  -6.769 -32.298  0.00  0.00    +0.000 NA
ATOM     21  N   UNL     1     -47.076  -6.142 -31.137  0.00  0.00    +0.000 N 
BRANCH  21  22
ATOM     22  C   UNL     1     -46.863  -4.709 -30.979  0.00  0.00    +0.000 C 
BRANCH  22  23
ATOM     23  C   UNL     1     -45.546  -4.310 -31.566  0.00  0.00    +0.000 A 
ATOM     24  C   UNL     1     -44.366  -4.722 -30.934  0.00  0.00    +0.000 A 
ATOM     25  C   UNL     1     -43.122  -4.354 -31.451  0.00  0.00    +0.000 A 
ATOM     26  C   UNL     1     -43.051  -3.572 -32.606  0.00  0.00    +0.000 A 
ATOM     27  C   UNL     1     -44.223  -3.159 -33.245  0.00  0.00    +0.000 A 
ATOM     28  C   UNL     1     -45.471  -3.524 -32.732  0.00  0.00    +0.000 A 
ATOM     29 CL   UNL     1     -46.914  -2.998 -33.585  0.00  0.00    +0.000 Cl
ENDBRANCH  22  23
ENDBRANCH  21  22
ENDBRANCH   3  17
TORSDOF 4
ENDMDL
MODEL 3
REMARK VINA RESULT:      -7.3     11.703     15.575
REMARK  Name = ZINC000021907259
REMARK  4 active torsions:
REMARK  status: ('A' for Active; 'I' for Inactive)
REMARK    1  A    between atoms: C_2  and  C_5
REMARK    2  A    between atoms: N_3  and  C_17
REMARK    3  A    between atoms: N_21  and  C_22
REMARK    4  A    between atoms: C_22  and  C_23
REMARK                            x       y       z     vdW  Elec       q    Type
REMARK                         _______ _______ _______ _____ _____    ______ ____
ROOT
ATOM      1  O   UNL     1     -44.296 -13.954 -21.221  0.00  0.00    +0.000 OA
ATOM      2  C   UNL     1     -45.444 -14.204 -21.681  0.00  0.00    +0.000 C 
ATOM      3  N   UNL     1     -46.601 -14.024 -20.851  0.00  0.00    +0.000 N 
ATOM      4  H   UNL     1     -47.474 -14.258 -21.241  0.00  0.00    +0.000 HD
ENDROOT
BRANCH   2   5
ATOM      5  C   UNL     1     -45.615 -14.685 -23.078  0.00  0.00    +0.000 A 
ATOM      6  C   UNL     1     -45.819 -13.724 -24.078  0.00  0.00    +0.000 A 
ATOM      7  C   UNL     1     -45.985 -14.108 -25.407  0.00  0.00    +0.000 A 
ATOM      8  O   UNL     1     -46.167 -13.234 -26.294  0.00  0.00    +0.000 OA
ATOM      9  N   UNL     1     -45.950 -15.421 -25.747  0.00  0.00    +0.000 N 
ATOM     10  C   UNL     1     -45.757 -16.393 -24.819  0.00  0.00    +0.000 A 
ATOM     11  C   UNL     1     -45.733 -17.732 -25.219  0.00  0.00    +0.000 A 
ATOM     12  C   UNL     1     -45.540 -18.744 -24.277  0.00  0.00    +0.000 A 
ATOM     13  C   UNL     1     -45.373 -18.420 -22.929  0.00  0.00    +0.000 A 
ATOM     14  C   UNL     1     -45.396 -17.085 -22.521  0.00  0.00    +0.000 A 
ATOM     15  C   UNL     1     -45.585 -16.052 -23.452  0.00  0.00    +0.000 A 
ATOM     16  H   UNL     1     -46.068 -15.675 -26.690  0.00  0.00    +0.000 HD
ENDBRANCH   2   5
BRANCH   3  17
ATOM     17  C   UNL     1     -46.597 -13.531 -19.505  0.00  0.00    +0.000 A 
ATOM     18  C   UNL     1     -46.447 -12.216 -19.109  0.00  0.00    +0.000 A 
ATOM     19  C   UNL     1     -46.529 -12.286 -17.722  0.00  0.00    +0.000 A 
ATOM     20  N   UNL     1     -46.715 -13.567 -17.340  0.00  0.00    +0.000 NA
ATOM     21  N   UNL     1     -46.760 -14.312 -18.428  0.00  0.00    +0.000 N 
BRANCH  21  22
ATOM     22  C   UNL     1     -46.915 -15.761 -18.417  0.00  0.00    +0.000 C 
BRANCH  22  23
ATOM     23  C   UNL     1     -45.588 -16.428 -18.597  0.00  0.00    +0.000 A 
ATOM     24  C   UNL     1     -44.425 -15.740 -18.232  0.00  0.00    +0.000 A 
ATOM     25  C   UNL     1     -43.171 -16.332 -18.400  0.00  0.00    +0.000 A 
ATOM     26  C   UNL     1     -43.073 -17.619 -18.936  0.00  0.00    +0.000 A 
ATOM     27  C   UNL     1     -44.230 -18.313 -19.301  0.00  0.00    +0.000 A 
ATOM     28  C   UNL     1     -45.487 -17.726 -19.135  0.00  0.00    +0.000 A 
ATOM     29 CL   UNL     1     -46.910 -18.650 -19.588  0.00  0.00    +0.000 Cl
ENDBRANCH  22  23
ENDBRANCH  21  22
ENDBRANCH   3  17
TORSDOF 4
ENDMDL
