MODEL 1
REMARK VINA RESULT:      -8.5      0.000      0.000
REMARK  Name = ZINC000064971506 ZINC64971506 ChemDiv-G741-1139 MCULE-4305964791 MolPort-010-846-948 PubChem-53091021
REMARK  5 active torsions:
REMARK  status: ('A' for Active; 'I' for Inactive)
REMARK    1  A    between atoms: N_1  and  C_20
REMARK    2  A    between atoms: N_8  and  C_23
REMARK    3  A    between atoms: C_23  and  C_24
REMARK    4  A    between atoms: N_26  and  C_28
REMARK    5  A    between atoms: C_28  and  C_29
REMARK                            x       y       z     vdW  Elec       q    Type
REMARK                         _______ _______ _______ _____ _____    ______ ____
ROOT
ATOM      1  N   UNL     1     -47.447  -4.439 -27.581  0.00  0.00    +0.000 N 
ATOM      2  C   UNL     1     -46.709  -5.597 -27.997  0.00  0.00    +0.000 C 
ATOM      3  O   UNL     1     -45.938  -6.180 -27.189  0.00  0.00    +0.000 OA
ATOM      4  N   UNL     1     -46.831  -6.068 -29.358  0.00  0.00    +0.000 N 
ATOM      5  C   UNL     1     -47.634  -5.261 -30.281  0.00  0.00    +0.000 C 
ATOM      6  C   UNL     1     -47.106  -5.341 -31.678  0.00  0.00    +0.000 C 
ATOM      7  O   UNL     1     -47.274  -4.367 -32.456  0.00  0.00    +0.000 OA
ATOM      8  N   UNL     1     -46.481  -6.546 -32.142  0.00  0.00    +0.000 N 
ATOM      9  C   UNL     1     -46.124  -7.569 -31.189  0.00  0.00    +0.000 A 
ATOM     10  C   UNL     1     -46.294  -7.336 -29.806  0.00  0.00    +0.000 A 
ATOM     11  C   UNL     1     -45.954  -8.349 -28.896  0.00  0.00    +0.000 A 
ATOM     12  C   UNL     1     -45.440  -9.568 -29.340  0.00  0.00    +0.000 A 
ATOM     13  C   UNL     1     -45.259  -9.791 -30.703  0.00  0.00    +0.000 A 
ATOM     14  C   UNL     1     -45.598  -8.798 -31.623  0.00  0.00    +0.000 A 
ATOM     15  H   UNL     1     -48.069  -4.055 -28.240  0.00  0.00    +0.000 HD
ENDROOT
BRANCH   1  20
ATOM     16  C   UNL     1     -47.152  -1.695 -22.563  0.00  0.00    +0.000 C 
ATOM     17  C   UNL     1     -47.230  -2.418 -23.861  0.00  0.00    +0.000 A 
ATOM     18  C   UNL     1     -47.309  -1.698 -25.056  0.00  0.00    +0.000 A 
ATOM     19  C   UNL     1     -47.382  -2.379 -26.276  0.00  0.00    +0.000 A 
ATOM     20  C   UNL     1     -47.378  -3.779 -26.308  0.00  0.00    +0.000 A 
ATOM     21  C   UNL     1     -47.292  -4.494 -25.105  0.00  0.00    +0.000 A 
ATOM     22  C   UNL     1     -47.218  -3.815 -23.884  0.00  0.00    +0.000 A 
ENDBRANCH   1  20
BRANCH   8  23
ATOM     23  C   UNL     1     -46.301  -6.745 -33.580  0.00  0.00    +0.000 C 
BRANCH  23  24
ATOM     24  C   UNL     1     -44.923  -6.344 -33.998  0.00  0.00    +0.000 C 
ATOM     25  O   UNL     1     -44.440  -6.809 -35.064  0.00  0.00    +0.000 OA
ATOM     26  N   UNL     1     -44.163  -5.439 -33.190  0.00  0.00    +0.000 N 
ATOM     27  H   UNL     1     -44.462  -5.265 -32.268  0.00  0.00    +0.000 HD
BRANCH  26  28
ATOM     28  C   UNL     1     -42.967  -4.762 -33.673  0.00  0.00    +0.000 C 
BRANCH  28  29
ATOM     29  C   UNL     1     -43.082  -3.281 -33.450  0.00  0.00    +0.000 A 
ATOM     30  C   UNL     1     -41.953  -2.472 -33.192  0.00  0.00    +0.000 A 
ATOM     31  C   UNL     1     -40.570  -3.040 -33.162  0.00  0.00    +0.000 C 
ATOM     32  C   UNL     1     -42.122  -1.101 -32.950  0.00  0.00    +0.000 A 
ATOM     33  C   UNL     1     -43.403  -0.532 -32.958  0.00  0.00    +0.000 A 
ATOM     34  C   UNL     1     -44.521  -1.333 -33.210  0.00  0.00    +0.000 A 
ATOM     35  C   UNL     1     -44.361  -2.701 -33.458  0.00  0.00    +0.000 A 
ENDBRANCH  28  29
ENDBRANCH  26  28
ENDBRANCH  23  24
ENDBRANCH   8  23
TORSDOF 5
ENDMDL
MODEL 2
REMARK VINA RESULT:      -8.1      5.167      9.459
REMARK  Name = ZINC000064971506 ZINC64971506 ChemDiv-G741-1139 MCULE-4305964791 MolPort-010-846-948 PubChem-53091021
REMARK  5 active torsions:
REMARK  status: ('A' for Active; 'I' for Inactive)
REMARK    1  A    between atoms: N_1  and  C_20
REMARK    2  A    between atoms: N_8  and  C_23
REMARK    3  A    between atoms: C_23  and  C_24
REMARK    4  A    between atoms: N_26  and  C_28
REMARK    5  A    between atoms: C_28  and  C_29
REMARK                            x       y       z     vdW  Elec       q    Type
REMARK                         _______ _______ _______ _____ _____    ______ ____
ROOT
ATOM      1  N   UNL     1     -46.600  -6.816 -26.729  0.00  0.00    +0.000 N 
ATOM      2  C   UNL     1     -46.560  -7.358 -28.057  0.00  0.00    +0.000 C 
ATOM      3  O   UNL     1     -46.732  -6.605 -29.053  0.00  0.00    +0.000 OA
ATOM      4  N   UNL     1     -46.354  -8.775 -28.242  0.00  0.00    +0.000 N 
ATOM      5  C   UNL     1     -46.303  -9.612 -27.039  0.00  0.00    +0.000 C 
ATOM      6  C   UNL     1     -46.851 -10.978 -27.299  0.00  0.00    +0.000 C 
ATOM      7  O   UNL     1     -47.388 -11.616 -26.356  0.00  0.00    +0.000 OA
ATOM      8  N   UNL     1     -46.699 -11.579 -28.593  0.00  0.00    +0.000 N 
ATOM      9  C   UNL     1     -46.263 -10.767 -29.703  0.00  0.00    +0.000 A 
ATOM     10  C   UNL     1     -46.093  -9.375 -29.534  0.00  0.00    +0.000 A 
ATOM     11  C   UNL     1     -45.655  -8.603 -30.622  0.00  0.00    +0.000 A 
ATOM     12  C   UNL     1     -45.403  -9.192 -31.862  0.00  0.00    +0.000 A 
ATOM     13  C   UNL     1     -45.586 -10.563 -32.031  0.00  0.00    +0.000 A 
ATOM     14  C   UNL     1     -46.014 -11.346 -30.958  0.00  0.00    +0.000 A 
ATOM     15  H   UNL     1     -46.411  -7.442 -25.994  0.00  0.00    +0.000 HD
ENDROOT
BRANCH   1  20
ATOM     16  C   UNL     1     -47.756  -1.443 -25.117  0.00  0.00    +0.000 C 
ATOM     17  C   UNL     1     -47.455  -2.835 -25.546  0.00  0.00    +0.000 A 
ATOM     18  C   UNL     1     -47.253  -3.832 -24.589  0.00  0.00    +0.000 A 
ATOM     19  C   UNL     1     -46.970  -5.141 -24.994  0.00  0.00    +0.000 A 
ATOM     20  C   UNL     1     -46.886  -5.459 -26.355  0.00  0.00    +0.000 A 
ATOM     21  C   UNL     1     -47.096  -4.455 -27.310  0.00  0.00    +0.000 A 
ATOM     22  C   UNL     1     -47.379  -3.146 -26.907  0.00  0.00    +0.000 A 
ENDBRANCH   1  20
BRANCH   8  23
ATOM     23  C   UNL     1     -46.905 -13.021 -28.735  0.00  0.00    +0.000 C 
BRANCH  23  24
ATOM     24  C   UNL     1     -45.763 -13.776 -28.135  0.00  0.00    +0.000 C 
ATOM     25  O   UNL     1     -44.690 -13.895 -28.786  0.00  0.00    +0.000 OA
ATOM     26  N   UNL     1     -45.892 -14.357 -26.833  0.00  0.00    +0.000 N 
ATOM     27  H   UNL     1     -46.792 -14.445 -26.443  0.00  0.00    +0.000 HD
BRANCH  26  28
ATOM     28  C   UNL     1     -44.749 -14.825 -26.060  0.00  0.00    +0.000 C 
BRANCH  28  29
ATOM     29  C   UNL     1     -44.850 -16.307 -25.829  0.00  0.00    +0.000 A 
ATOM     30  C   UNL     1     -44.017 -17.227 -26.503  0.00  0.00    +0.000 A 
ATOM     31  C   UNL     1     -42.958 -16.777 -27.457  0.00  0.00    +0.000 C 
ATOM     32  C   UNL     1     -44.182 -18.603 -26.281  0.00  0.00    +0.000 A 
ATOM     33  C   UNL     1     -45.170 -19.067 -25.403  0.00  0.00    +0.000 A 
ATOM     34  C   UNL     1     -45.998 -18.156 -24.740  0.00  0.00    +0.000 A 
ATOM     35  C   UNL     1     -45.836 -16.781 -24.950  0.00  0.00    +0.000 A 
ENDBRANCH  28  29
ENDBRANCH  26  28
ENDBRANCH  23  24
ENDBRANCH   8  23
TORSDOF 5
ENDMDL
MODEL 3
REMARK VINA RESULT:      -7.8      1.142      1.306
REMARK  Name = ZINC000064971506 ZINC64971506 ChemDiv-G741-1139 MCULE-4305964791 MolPort-010-846-948 PubChem-53091021
REMARK  5 active torsions:
REMARK  status: ('A' for Active; 'I' for Inactive)
REMARK    1  A    between atoms: N_1  and  C_20
REMARK    2  A    between atoms: N_8  and  C_23
REMARK    3  A    between atoms: C_23  and  C_24
REMARK    4  A    between atoms: N_26  and  C_28
REMARK    5  A    between atoms: C_28  and  C_29
REMARK                            x       y       z     vdW  Elec       q    Type
REMARK                         _______ _______ _______ _____ _____    ______ ____
ROOT
ATOM      1  N   UNL     1     -47.147  -5.235 -27.050  0.00  0.00    +0.000 N 
ATOM      2  C   UNL     1     -46.159  -6.241 -27.315  0.00  0.00    +0.000 C 
ATOM      3  O   UNL     1     -45.240  -6.461 -26.481  0.00  0.00    +0.000 OA
ATOM      4  N   UNL     1     -46.206  -6.975 -28.558  0.00  0.00    +0.000 N 
ATOM      5  C   UNL     1     -47.215  -6.571 -29.542  0.00  0.00    +0.000 C 
ATOM      6  C   UNL     1     -46.732  -6.784 -30.940  0.00  0.00    +0.000 C 
ATOM      7  O   UNL     1     -47.163  -6.042 -31.861  0.00  0.00    +0.000 OA
ATOM      8  N   UNL     1     -45.843  -7.871 -31.235  0.00  0.00    +0.000 N 
ATOM      9  C   UNL     1     -45.211  -8.582 -30.150  0.00  0.00    +0.000 A 
ATOM     10  C   UNL     1     -45.387  -8.140 -28.820  0.00  0.00    +0.000 A 
ATOM     11  C   UNL     1     -44.775  -8.853 -27.777  0.00  0.00    +0.000 A 
ATOM     12  C   UNL     1     -43.990  -9.976 -28.041  0.00  0.00    +0.000 A 
ATOM     13  C   UNL     1     -43.806 -10.402 -29.355  0.00  0.00    +0.000 A 
ATOM     14  C   UNL     1     -44.412  -9.709 -30.404  0.00  0.00    +0.000 A 
ATOM     15  H   UNL     1     -47.867  -5.141 -27.714  0.00  0.00    +0.000 HD
ENDROOT
BRANCH   1  20
ATOM     16  C   UNL     1     -47.342  -1.605 -22.624  0.00  0.00    +0.000 C 
ATOM     17  C   UNL     1     -47.293  -2.556 -23.766  0.00  0.00    +0.000 A 
ATOM     18  C   UNL     1     -47.300  -2.074 -25.077  0.00  0.00    +0.000 A 
ATOM     19  C   UNL     1     -47.254  -2.969 -26.150  0.00  0.00    +0.000 A 
ATOM     20  C   UNL     1     -47.201  -4.349 -25.920  0.00  0.00    +0.000 A 
ATOM     21  C   UNL     1     -47.186  -4.826 -24.602  0.00  0.00    +0.000 A 
ATOM     22  C   UNL     1     -47.232  -3.933 -23.527  0.00  0.00    +0.000 A 
ENDBRANCH   1  20
BRANCH   8  23
ATOM     23  C   UNL     1     -45.668  -8.288 -32.627  0.00  0.00    +0.000 C 
BRANCH  23  24
ATOM     24  C   UNL     1     -44.490  -7.600 -33.238  0.00  0.00    +0.000 C 
ATOM     25  O   UNL     1     -43.611  -8.285 -33.826  0.00  0.00    +0.000 OA
ATOM     26  N   UNL     1     -44.367  -6.177 -33.152  0.00  0.00    +0.000 N 
ATOM     27  H   UNL     1     -44.934  -5.692 -32.509  0.00  0.00    +0.000 HD
BRANCH  26  28
ATOM     28  C   UNL     1     -43.438  -5.414 -33.975  0.00  0.00    +0.000 C 
BRANCH  28  29
ATOM     29  C   UNL     1     -43.604  -3.942 -33.717  0.00  0.00    +0.000 A 
ATOM     30  C   UNL     1     -42.500  -3.065 -33.652  0.00  0.00    +0.000 A 
ATOM     31  C   UNL     1     -41.100  -3.543 -33.875  0.00  0.00    +0.000 C 
ATOM     32  C   UNL     1     -42.708  -1.707 -33.367  0.00  0.00    +0.000 A 
ATOM     33  C   UNL     1     -44.002  -1.220 -33.140  0.00  0.00    +0.000 A 
ATOM     34  C   UNL     1     -45.096  -2.090 -33.200  0.00  0.00    +0.000 A 
ATOM     35  C   UNL     1     -44.897  -3.445 -33.490  0.00  0.00    +0.000 A 
ENDBRANCH  28  29
ENDBRANCH  26  28
ENDBRANCH  23  24
ENDBRANCH   8  23
TORSDOF 5
ENDMDL
