MODEL 1
REMARK VINA RESULT:      -6.8      0.000      0.000
REMARK  Name = ZINC000018200764
REMARK  2 active torsions:
REMARK  status: ('A' for Active; 'I' for Inactive)
REMARK    1  A    between atoms: C_14  and  O_15
REMARK    2  A    between atoms: C_17  and  C_21
REMARK                            x       y       z     vdW  Elec       q    Type
REMARK                         _______ _______ _______ _____ _____    ______ ____
ROOT
ATOM      1  C   UNL     1     -44.094 -10.004 -31.510  0.00  0.00    +0.000 C 
ATOM      2  C   UNL     1     -45.574 -10.221 -31.787  0.00  0.00    +0.000 C 
ATOM      3  C   UNL     1     -45.774 -11.660 -32.208  0.00  0.00    +0.000 C 
ATOM      4  C   UNL     1     -46.033  -9.311 -32.928  0.00  0.00    +0.000 C 
ATOM      5  C   UNL     1     -46.260  -7.891 -32.494  0.00  0.00    +0.000 C 
ATOM      6  O   UNL     1     -46.396  -7.005 -33.380  0.00  0.00    +0.000 OA
ATOM      7  C   UNL     1     -46.347  -7.526 -31.059  0.00  0.00    +0.000 C 
ATOM      8  C   UNL     1     -46.396  -8.515 -30.119  0.00  0.00    +0.000 C 
ATOM      9  C   UNL     1     -46.395  -9.963 -30.522  0.00  0.00    +0.000 C 
ATOM     10  N   UNL     1     -46.567  -8.211 -28.722  0.00  0.00    +0.000 N 
ATOM     11  C   UNL     1     -46.709  -6.851 -28.334  0.00  0.00    +0.000 A 
ATOM     12  N   UNL     1     -46.946  -6.395 -27.090  0.00  0.00    +0.000 N 
ATOM     13  N   UNL     1     -47.032  -5.070 -27.172  0.00  0.00    +0.000 NA
ATOM     14  C   UNL     1     -46.851  -4.715 -28.464  0.00  0.00    +0.000 A 
ATOM     15  C   UNL     1     -46.648  -5.838 -29.228  0.00  0.00    +0.000 A 
ATOM     16  C   UNL     1     -46.347  -6.040 -30.681  0.00  0.00    +0.000 C 
ATOM     17  H   UNL     1     -46.585  -8.930 -28.051  0.00  0.00    +0.000 HD
ATOM     18  H   UNL     1     -47.038  -6.939 -26.275  0.00  0.00    +0.000 HD
ENDROOT
BRANCH  16  19
ATOM     19  C   UNL     1     -45.042  -5.378 -31.046  0.00  0.00    +0.000 A 
ATOM     20  C   UNL     1     -43.838  -5.869 -30.524  0.00  0.00    +0.000 A 
ATOM     21  C   UNL     1     -42.631  -5.252 -30.855  0.00  0.00    +0.000 A 
ATOM     22  N   UNL     1     -42.620  -4.172 -31.681  0.00  0.00    +0.000 NA
ATOM     23  C   UNL     1     -43.766  -3.663 -32.204  0.00  0.00    +0.000 A 
ATOM     24  C   UNL     1     -43.711  -2.549 -33.047  0.00  0.00    +0.000 A 
ATOM     25  C   UNL     1     -44.887  -2.019 -33.585  0.00  0.00    +0.000 A 
ATOM     26  C   UNL     1     -46.122  -2.600 -33.284  0.00  0.00    +0.000 A 
ATOM     27  C   UNL     1     -46.185  -3.715 -32.443  0.00  0.00    +0.000 A 
ATOM     28  C   UNL     1     -45.013  -4.257 -31.895  0.00  0.00    +0.000 A 
ENDBRANCH  16  19
BRANCH  14  29
ATOM     29  O   UNL     1     -46.864  -3.405 -28.921  0.00  0.00    +0.000 OA
ATOM     30  H   UNL     1     -47.668  -2.924 -28.944  0.00  0.00    +0.000 HD
ENDBRANCH  14  29
TORSDOF 2
ENDMDL
MODEL 2
REMARK VINA RESULT:      -6.7      2.351      6.053
REMARK  Name = ZINC000018200764
REMARK  2 active torsions:
REMARK  status: ('A' for Active; 'I' for Inactive)
REMARK    1  A    between atoms: C_14  and  O_15
REMARK    2  A    between atoms: C_17  and  C_21
REMARK                            x       y       z     vdW  Elec       q    Type
REMARK                         _______ _______ _______ _____ _____    ______ ____
ROOT
ATOM      1  C   UNL     1     -42.877  -2.407 -32.519  0.00  0.00    +0.000 C 
ATOM      2  C   UNL     1     -44.248  -1.788 -32.741  0.00  0.00    +0.000 C 
ATOM      3  C   UNL     1     -44.061  -0.450 -33.423  0.00  0.00    +0.000 C 
ATOM      4  C   UNL     1     -44.943  -1.557 -31.398  0.00  0.00    +0.000 C 
ATOM      5  C   UNL     1     -45.535  -2.811 -30.818  0.00  0.00    +0.000 C 
ATOM      6  O   UNL     1     -45.911  -2.799 -29.616  0.00  0.00    +0.000 OA
ATOM      7  C   UNL     1     -45.703  -4.036 -31.637  0.00  0.00    +0.000 C 
ATOM      8  C   UNL     1     -45.479  -3.977 -32.983  0.00  0.00    +0.000 C 
ATOM      9  C   UNL     1     -45.096  -2.683 -33.645  0.00  0.00    +0.000 C 
ATOM     10  N   UNL     1     -45.711  -5.118 -33.830  0.00  0.00    +0.000 N 
ATOM     11  C   UNL     1     -46.207  -6.313 -33.241  0.00  0.00    +0.000 A 
ATOM     12  N   UNL     1     -46.545  -7.443 -33.889  0.00  0.00    +0.000 N 
ATOM     13  N   UNL     1     -46.981  -8.301 -32.971  0.00  0.00    +0.000 NA
ATOM     14  C   UNL     1     -46.913  -7.698 -31.764  0.00  0.00    +0.000 A 
ATOM     15  C   UNL     1     -46.426  -6.423 -31.911  0.00  0.00    +0.000 A 
ATOM     16  C   UNL     1     -46.096  -5.339 -30.931  0.00  0.00    +0.000 C 
ATOM     17  H   UNL     1     -45.531  -5.071 -34.796  0.00  0.00    +0.000 HD
ATOM     18  H   UNL     1     -46.481  -7.604 -34.859  0.00  0.00    +0.000 HD
ENDROOT
BRANCH  16  19
ATOM     19  C   UNL     1     -45.017  -5.798 -29.982  0.00  0.00    +0.000 A 
ATOM     20  C   UNL     1     -43.710  -5.995 -30.449  0.00  0.00    +0.000 A 
ATOM     21  C   UNL     1     -42.715  -6.428 -29.572  0.00  0.00    +0.000 A 
ATOM     22  N   UNL     1     -43.008  -6.662 -28.266  0.00  0.00    +0.000 NA
ATOM     23  C   UNL     1     -44.263  -6.486 -27.775  0.00  0.00    +0.000 A 
ATOM     24  C   UNL     1     -44.525  -6.741 -26.426  0.00  0.00    +0.000 A 
ATOM     25  C   UNL     1     -45.814  -6.565 -25.916  0.00  0.00    +0.000 A 
ATOM     26  C   UNL     1     -46.847  -6.134 -26.753  0.00  0.00    +0.000 A 
ATOM     27  C   UNL     1     -46.594  -5.877 -28.103  0.00  0.00    +0.000 A 
ATOM     28  C   UNL     1     -45.305  -6.049 -28.628  0.00  0.00    +0.000 A 
ENDBRANCH  16  19
BRANCH  14  29
ATOM     29  O   UNL     1     -47.278  -8.302 -30.569  0.00  0.00    +0.000 OA
ATOM     30  H   UNL     1     -46.643  -8.421 -29.891  0.00  0.00    +0.000 HD
ENDBRANCH  14  29
TORSDOF 2
ENDMDL
MODEL 3
REMARK VINA RESULT:      -6.6     11.341     14.214
REMARK  Name = ZINC000018200764
REMARK  2 active torsions:
REMARK  status: ('A' for Active; 'I' for Inactive)
REMARK    1  A    between atoms: C_14  and  O_15
REMARK    2  A    between atoms: C_17  and  C_21
REMARK                            x       y       z     vdW  Elec       q    Type
REMARK                         _______ _______ _______ _____ _____    ______ ____
ROOT
ATOM      1  C   UNL     1     -43.577 -14.232 -25.949  0.00  0.00    +0.000 C 
ATOM      2  C   UNL     1     -44.830 -14.949 -26.427  0.00  0.00    +0.000 C 
ATOM      3  C   UNL     1     -45.170 -14.441 -27.811  0.00  0.00    +0.000 C 
ATOM      4  C   UNL     1     -46.001 -14.638 -25.493  0.00  0.00    +0.000 C 
ATOM      5  C   UNL     1     -45.961 -15.430 -24.216  0.00  0.00    +0.000 C 
ATOM      6  O   UNL     1     -46.721 -15.088 -23.271  0.00  0.00    +0.000 OA
ATOM      7  C   UNL     1     -45.070 -16.606 -24.064  0.00  0.00    +0.000 C 
ATOM      8  C   UNL     1     -44.402 -17.085 -25.154  0.00  0.00    +0.000 C 
ATOM      9  C   UNL     1     -44.583 -16.457 -26.507  0.00  0.00    +0.000 C 
ATOM     10  N   UNL     1     -43.594 -18.274 -25.072  0.00  0.00    +0.000 N 
ATOM     11  C   UNL     1     -43.520 -18.964 -23.832  0.00  0.00    +0.000 A 
ATOM     12  N   UNL     1     -42.874 -20.120 -23.597  0.00  0.00    +0.000 N 
ATOM     13  N   UNL     1     -43.078 -20.426 -22.319  0.00  0.00    +0.000 NA
ATOM     14  C   UNL     1     -43.849 -19.461 -21.771  0.00  0.00    +0.000 A 
ATOM     15  C   UNL     1     -44.151 -18.516 -22.721  0.00  0.00    +0.000 A 
ATOM     16  C   UNL     1     -44.908 -17.225 -22.670  0.00  0.00    +0.000 C 
ATOM     17  H   UNL     1     -43.103 -18.602 -25.860  0.00  0.00    +0.000 HD
ATOM     18  H   UNL     1     -42.350 -20.641 -24.248  0.00  0.00    +0.000 HD
ENDROOT
BRANCH  16  19
ATOM     19  C   UNL     1     -44.249 -16.264 -21.714  0.00  0.00    +0.000 A 
ATOM     20  C   UNL     1     -43.015 -15.684 -22.042  0.00  0.00    +0.000 A 
ATOM     21  C   UNL     1     -42.401 -14.801 -21.153  0.00  0.00    +0.000 A 
ATOM     22  N   UNL     1     -42.993 -14.504 -19.967  0.00  0.00    +0.000 NA
ATOM     23  C   UNL     1     -44.186 -15.047 -19.609  0.00  0.00    +0.000 A 
ATOM     24  C   UNL     1     -44.761 -14.717 -18.378  0.00  0.00    +0.000 A 
ATOM     25  C   UNL     1     -45.986 -15.276 -18.004  0.00  0.00    +0.000 A 
ATOM     26  C   UNL     1     -46.642 -16.166 -18.858  0.00  0.00    +0.000 A 
ATOM     27  C   UNL     1     -46.075 -16.501 -20.091  0.00  0.00    +0.000 A 
ATOM     28  C   UNL     1     -44.846 -15.948 -20.479  0.00  0.00    +0.000 A 
ENDBRANCH  16  19
BRANCH  14  29
ATOM     29  O   UNL     1     -44.255 -19.445 -20.444  0.00  0.00    +0.000 OA
ATOM     30  H   UNL     1     -43.666 -19.148 -19.778  0.00  0.00    +0.000 HD
ENDBRANCH  14  29
TORSDOF 2
ENDMDL
