MODEL 1
REMARK VINA RESULT:      -7.5      0.000      0.000
REMARK  Name = ZINC000096114995 ZINC96114995 PubChem-97424600
REMARK  4 active torsions:
REMARK  status: ('A' for Active; 'I' for Inactive)
REMARK    1  A    between atoms: C_1  and  C_23
REMARK    2  A    between atoms: C_13  and  C_28
REMARK    3  A    between atoms: C_15  and  O_18
REMARK    4  A    between atoms: C_16  and  O_17
REMARK                            x       y       z     vdW  Elec       q    Type
REMARK                         _______ _______ _______ _____ _____    ______ ____
ROOT
ATOM      1  C   UNL     1     -46.690  -9.069 -28.135  0.00  0.00    +0.000 C 
ATOM      2  C   UNL     1     -46.139 -10.487 -28.311  0.00  0.00    +0.000 C 
ATOM      3  C   UNL     1     -46.665 -11.130 -29.545  0.00  0.00    +0.000 C 
ATOM      4  O   UNL     1     -46.918 -12.362 -29.557  0.00  0.00    +0.000 OA
ATOM      5  O   UNL     1     -46.837 -10.370 -30.698  0.00  0.00    +0.000 OA
ATOM      6  C   UNL     1     -46.818  -8.972 -30.669  0.00  0.00    +0.000 A 
ATOM      7  C   UNL     1     -46.767  -8.273 -29.440  0.00  0.00    +0.000 A 
ATOM      8  C   UNL     1     -46.916  -6.864 -29.453  0.00  0.00    +0.000 A 
ATOM      9  C   UNL     1     -46.987  -6.162 -30.684  0.00  0.00    +0.000 A 
ATOM     10  C   UNL     1     -47.102  -4.757 -30.637  0.00  0.00    +0.000 A 
ATOM     11  O   UNL     1     -47.158  -4.062 -31.686  0.00  0.00    +0.000 OA
ATOM     12  C   UNL     1     -47.162  -4.114 -29.407  0.00  0.00    +0.000 A 
ATOM     13  C   UNL     1     -47.107  -4.868 -28.232  0.00  0.00    +0.000 A 
ATOM     14  O   UNL     1     -46.991  -6.192 -28.305  0.00  0.00    +0.000 OA
ATOM     15  C   UNL     1     -46.954  -6.883 -31.897  0.00  0.00    +0.000 A 
ATOM     16  C   UNL     1     -46.888  -8.278 -31.879  0.00  0.00    +0.000 A 
ENDROOT
BRANCH   1  19
ATOM     17  C   UNL     1     -47.440  -8.716 -25.028  0.00  0.00    +0.000 C 
ATOM     18  C   UNL     1     -46.211  -8.230 -25.723  0.00  0.00    +0.000 A 
ATOM     19  C   UNL     1     -45.887  -8.404 -27.054  0.00  0.00    +0.000 A 
ATOM     20  C   UNL     1     -44.683  -7.742 -27.235  0.00  0.00    +0.000 A 
ATOM     21  N   UNL     1     -44.307  -7.219 -26.048  0.00  0.00    +0.000 NA
ATOM     22  N   UNL     1     -45.229  -7.519 -25.148  0.00  0.00    +0.000 N 
ATOM     23  C   UNL     1     -45.158  -7.110 -23.755  0.00  0.00    +0.000 C 
ENDBRANCH   1  19
BRANCH  13  24
ATOM     24  C   UNL     1     -47.176  -4.211 -26.911  0.00  0.00    +0.000 A 
ATOM     25  C   UNL     1     -47.170  -4.963 -25.725  0.00  0.00    +0.000 A 
ATOM     26  C   UNL     1     -47.239  -4.327 -24.482  0.00  0.00    +0.000 A 
ATOM     27  C   UNL     1     -47.313  -2.934 -24.414  0.00  0.00    +0.000 A 
ATOM     28  C   UNL     1     -47.317  -2.176 -25.588  0.00  0.00    +0.000 A 
ATOM     29  C   UNL     1     -47.248  -2.813 -26.830  0.00  0.00    +0.000 A 
ENDBRANCH  13  24
BRANCH  16  30
ATOM     30  O   UNL     1     -46.900  -8.983 -33.078  0.00  0.00    +0.000 OA
ATOM     31  H   UNL     1     -47.088  -8.538 -33.881  0.00  0.00    +0.000 HD
ENDBRANCH  16  30
BRANCH  15  32
ATOM     32  O   UNL     1     -47.008  -6.232 -33.126  0.00  0.00    +0.000 OA
ATOM     33  H   UNL     1     -46.751  -5.333 -33.190  0.00  0.00    +0.000 HD
ENDBRANCH  15  32
TORSDOF 4
ENDMDL
MODEL 2
REMARK VINA RESULT:      -7.2     10.236     13.779
REMARK  Name = ZINC000096114995 ZINC96114995 PubChem-97424600
REMARK  4 active torsions:
REMARK  status: ('A' for Active; 'I' for Inactive)
REMARK    1  A    between atoms: C_1  and  C_23
REMARK    2  A    between atoms: C_13  and  C_28
REMARK    3  A    between atoms: C_15  and  O_18
REMARK    4  A    between atoms: C_16  and  O_17
REMARK                            x       y       z     vdW  Elec       q    Type
REMARK                         _______ _______ _______ _____ _____    ______ ____
ROOT
ATOM      1  C   UNL     1     -45.286 -16.196 -20.783  0.00  0.00    +0.000 C 
ATOM      2  C   UNL     1     -46.433 -15.383 -20.179  0.00  0.00    +0.000 C 
ATOM      3  C   UNL     1     -46.656 -14.113 -20.922  0.00  0.00    +0.000 C 
ATOM      4  O   UNL     1     -46.993 -13.071 -20.305  0.00  0.00    +0.000 OA
ATOM      5  O   UNL     1     -46.528 -14.095 -22.308  0.00  0.00    +0.000 OA
ATOM      6  C   UNL     1     -45.914 -15.140 -23.005  0.00  0.00    +0.000 A 
ATOM      7  C   UNL     1     -45.269 -16.192 -22.314  0.00  0.00    +0.000 A 
ATOM      8  C   UNL     1     -44.522 -17.138 -23.059  0.00  0.00    +0.000 A 
ATOM      9  C   UNL     1     -44.529 -17.099 -24.478  0.00  0.00    +0.000 A 
ATOM     10  C   UNL     1     -43.794 -18.085 -25.168  0.00  0.00    +0.000 A 
ATOM     11  O   UNL     1     -43.760 -18.125 -26.427  0.00  0.00    +0.000 OA
ATOM     12  C   UNL     1     -43.080 -19.036 -24.452  0.00  0.00    +0.000 A 
ATOM     13  C   UNL     1     -43.099 -19.004 -23.055  0.00  0.00    +0.000 A 
ATOM     14  O   UNL     1     -43.807 -18.069 -22.428  0.00  0.00    +0.000 OA
ATOM     15  C   UNL     1     -45.250 -16.083 -25.141  0.00  0.00    +0.000 A 
ATOM     16  C   UNL     1     -45.919 -15.105 -24.402  0.00  0.00    +0.000 A 
ENDROOT
BRANCH   1  19
ATOM     17  C   UNL     1     -43.328 -17.457 -18.565  0.00  0.00    +0.000 C 
ATOM     18  C   UNL     1     -44.485 -18.123 -19.235  0.00  0.00    +0.000 A 
ATOM     19  C   UNL     1     -45.334 -17.567 -20.171  0.00  0.00    +0.000 A 
ATOM     20  C   UNL     1     -46.212 -18.578 -20.526  0.00  0.00    +0.000 A 
ATOM     21  N   UNL     1     -45.901 -19.678 -19.807  0.00  0.00    +0.000 NA
ATOM     22  N   UNL     1     -44.866 -19.394 -19.034  0.00  0.00    +0.000 N 
ATOM     23  C   UNL     1     -44.253 -20.347 -18.125  0.00  0.00    +0.000 C 
ENDBRANCH   1  19
BRANCH  13  24
ATOM     24  C   UNL     1     -42.343 -20.000 -22.268  0.00  0.00    +0.000 A 
ATOM     25  C   UNL     1     -41.851 -19.693 -20.989  0.00  0.00    +0.000 A 
ATOM     26  C   UNL     1     -41.135 -20.645 -20.258  0.00  0.00    +0.000 A 
ATOM     27  C   UNL     1     -40.904 -21.912 -20.798  0.00  0.00    +0.000 A 
ATOM     28  C   UNL     1     -41.391 -22.229 -22.069  0.00  0.00    +0.000 A 
ATOM     29  C   UNL     1     -42.108 -21.277 -22.800  0.00  0.00    +0.000 A 
ENDBRANCH  13  24
BRANCH  16  30
ATOM     30  O   UNL     1     -46.591 -14.082 -25.062  0.00  0.00    +0.000 OA
ATOM     31  H   UNL     1     -47.132 -14.279 -25.803  0.00  0.00    +0.000 HD
ENDBRANCH  16  30
BRANCH  15  32
ATOM     32  O   UNL     1     -45.294 -16.017 -26.530  0.00  0.00    +0.000 OA
ATOM     33  H   UNL     1     -45.920 -15.464 -26.953  0.00  0.00    +0.000 HD
ENDBRANCH  15  32
TORSDOF 4
ENDMDL
MODEL 3
REMARK VINA RESULT:      -7.2      9.559     13.148
REMARK  Name = ZINC000096114995 ZINC96114995 PubChem-97424600
REMARK  4 active torsions:
REMARK  status: ('A' for Active; 'I' for Inactive)
REMARK    1  A    between atoms: C_1  and  C_23
REMARK    2  A    between atoms: C_13  and  C_28
REMARK    3  A    between atoms: C_15  and  O_18
REMARK    4  A    between atoms: C_16  and  O_17
REMARK                            x       y       z     vdW  Elec       q    Type
REMARK                         _______ _______ _______ _____ _____    ______ ____
ROOT
ATOM      1  C   UNL     1     -42.810 -19.315 -23.340  0.00  0.00    +0.000 C 
ATOM      2  C   UNL     1     -42.559 -20.716 -22.774  0.00  0.00    +0.000 C 
ATOM      3  C   UNL     1     -42.419 -20.691 -21.293  0.00  0.00    +0.000 C 
ATOM      4  O   UNL     1     -41.606 -21.463 -20.722  0.00  0.00    +0.000 OA
ATOM      5  O   UNL     1     -43.220 -19.838 -20.540  0.00  0.00    +0.000 OA
ATOM      6  C   UNL     1     -43.940 -18.794 -21.127  0.00  0.00    +0.000 A 
ATOM      7  C   UNL     1     -43.769 -18.473 -22.494  0.00  0.00    +0.000 A 
ATOM      8  C   UNL     1     -44.395 -17.308 -23.003  0.00  0.00    +0.000 A 
ATOM      9  C   UNL     1     -45.275 -16.553 -22.186  0.00  0.00    +0.000 A 
ATOM     10  C   UNL     1     -45.894 -15.421 -22.755  0.00  0.00    +0.000 A 
ATOM     11  O   UNL     1     -46.698 -14.705 -22.099  0.00  0.00    +0.000 OA
ATOM     12  C   UNL     1     -45.613 -15.073 -24.070  0.00  0.00    +0.000 A 
ATOM     13  C   UNL     1     -44.721 -15.849 -24.812  0.00  0.00    +0.000 A 
ATOM     14  O   UNL     1     -44.156 -16.917 -24.254  0.00  0.00    +0.000 OA
ATOM     15  C   UNL     1     -45.488 -16.945 -20.847  0.00  0.00    +0.000 A 
ATOM     16  C   UNL     1     -44.808 -18.047 -20.326  0.00  0.00    +0.000 A 
ENDROOT
BRANCH   1  19
ATOM     17  C   UNL     1     -41.017 -19.011 -25.992  0.00  0.00    +0.000 C 
ATOM     18  C   UNL     1     -42.474 -19.327 -25.916  0.00  0.00    +0.000 A 
ATOM     19  C   UNL     1     -43.233 -19.477 -24.772  0.00  0.00    +0.000 A 
ATOM     20  C   UNL     1     -44.525 -19.719 -25.210  0.00  0.00    +0.000 A 
ATOM     21  N   UNL     1     -44.517 -19.731 -26.560  0.00  0.00    +0.000 NA
ATOM     22  N   UNL     1     -43.283 -19.498 -26.974  0.00  0.00    +0.000 N 
ATOM     23  C   UNL     1     -42.901 -19.431 -28.374  0.00  0.00    +0.000 C 
ENDBRANCH   1  19
BRANCH  13  24
ATOM     24  C   UNL     1     -44.399 -15.498 -26.211  0.00  0.00    +0.000 A 
ATOM     25  C   UNL     1     -43.221 -15.959 -26.822  0.00  0.00    +0.000 A 
ATOM     26  C   UNL     1     -42.929 -15.615 -28.146  0.00  0.00    +0.000 A 
ATOM     27  C   UNL     1     -43.811 -14.810 -28.869  0.00  0.00    +0.000 A 
ATOM     28  C   UNL     1     -44.986 -14.348 -28.271  0.00  0.00    +0.000 A 
ATOM     29  C   UNL     1     -45.278 -14.691 -26.948  0.00  0.00    +0.000 A 
ENDBRANCH  13  24
BRANCH  16  30
ATOM     30  O   UNL     1     -44.990 -18.402 -18.993  0.00  0.00    +0.000 OA
ATOM     31  H   UNL     1     -44.249 -18.606 -18.457  0.00  0.00    +0.000 HD
ENDBRANCH  16  30
BRANCH  15  32
ATOM     32  O   UNL     1     -46.354 -16.239 -20.017  0.00  0.00    +0.000 OA
ATOM     33  H   UNL     1     -46.636 -16.616 -19.207  0.00  0.00    +0.000 HD
ENDBRANCH  15  32
TORSDOF 4
ENDMDL
