MODEL 1
REMARK VINA RESULT:      -7.0      0.000      0.000
REMARK  Name = ZINC000008812094 PubChem-92346081
REMARK  7 active torsions:
REMARK  status: ('A' for Active; 'I' for Inactive)
REMARK    1  A    between atoms: C_1  and  S_27
REMARK    2  A    between atoms: C_11  and  C_13
REMARK    3  A    between atoms: N_15  and  C_17
REMARK    4  A    between atoms: C_17  and  C_18
REMARK    5  A    between atoms: C_18  and  C_19
REMARK    6  A    between atoms: C_19  and  N_20
REMARK    7  A    between atoms: S_27  and  N_36
REMARK                            x       y       z     vdW  Elec       q    Type
REMARK                         _______ _______ _______ _____ _____    ______ ____
ROOT
ATOM      1  C   UNL     1     -44.717  -5.351 -29.812  0.00  0.00    +0.000 A 
ATOM      2  C   UNL     1     -45.240  -5.805 -28.598  0.00  0.00    +0.000 A 
ATOM      3  C   UNL     1     -44.423  -6.467 -27.669  0.00  0.00    +0.000 A 
ATOM      4  C   UNL     1     -43.053  -6.651 -27.972  0.00  0.00    +0.000 A 
ATOM      5  C   UNL     1     -42.532  -6.191 -29.185  0.00  0.00    +0.000 A 
ATOM      6  C   UNL     1     -43.363  -5.543 -30.103  0.00  0.00    +0.000 A 
ATOM      7  N   UNL     1     -42.234  -7.273 -27.083  0.00  0.00    +0.000 N 
ATOM      8  C   UNL     1     -42.698  -7.731 -25.891  0.00  0.00    +0.000 A 
ATOM      9  O   UNL     1     -41.912  -8.302 -25.091  0.00  0.00    +0.000 OA
ATOM     10  C   UNL     1     -44.041  -7.573 -25.553  0.00  0.00    +0.000 A 
ATOM     11  C   UNL     1     -44.924  -6.934 -26.432  0.00  0.00    +0.000 A 
ATOM     12  H   UNL     1     -41.284  -7.392 -27.307  0.00  0.00    +0.000 HD
ENDROOT
BRANCH  11  13
ATOM     13  C   UNL     1     -46.358  -6.814 -26.061  0.00  0.00    +0.000 C 
ATOM     14  O   UNL     1     -46.751  -5.791 -25.438  0.00  0.00    +0.000 OA
ATOM     15  N   UNL     1     -47.323  -7.826 -26.378  0.00  0.00    +0.000 N 
ATOM     16  H   UNL     1     -48.263  -7.649 -26.143  0.00  0.00    +0.000 HD
BRANCH  15  17
ATOM     17  C   UNL     1     -47.017  -9.096 -27.019  0.00  0.00    +0.000 C 
BRANCH  17  18
ATOM     18  C   UNL     1     -47.203  -8.970 -28.520  0.00  0.00    +0.000 C 
BRANCH  18  19
ATOM     19  C   UNL     1     -45.956  -9.445 -29.247  0.00  0.00    +0.000 C 
BRANCH  19  20
ATOM     20  N   UNL     1     -45.735 -10.861 -29.002  0.00  0.00    +0.000 NA
ATOM     21  C   UNL     1     -46.874 -11.573 -29.570  0.00  0.00    +0.000 C 
ATOM     22  C   UNL     1     -47.186 -12.848 -28.782  0.00  0.00    +0.000 C 
ATOM     23  C   UNL     1     -45.953 -13.612 -28.287  0.00  0.00    +0.000 C 
ATOM     24  C   UNL     1     -44.853 -13.712 -29.335  0.00  0.00    +0.000 C 
ATOM     25  C   UNL     1     -43.925 -12.505 -29.238  0.00  0.00    +0.000 C 
ATOM     26  C   UNL     1     -44.574 -11.242 -29.796  0.00  0.00    +0.000 C 
ENDBRANCH  19  20
ENDBRANCH  18  19
ENDBRANCH  17  18
ENDBRANCH  15  17
ENDBRANCH  11  13
BRANCH   1  27
ATOM     27  S   UNL     1     -45.754  -4.528 -30.964  0.00  0.00    +0.000 S 
ATOM     28  O   UNL     1     -46.307  -5.540 -31.929  0.00  0.00    +0.000 OA
ATOM     29  O   UNL     1     -46.886  -3.867 -30.227  0.00  0.00    +0.000 OA
BRANCH  27  36
ATOM     30  C   UNL     1     -46.642  -2.989 -33.536  0.00  0.00    +0.000 C 
ATOM     31  C   UNL     1     -45.171  -3.315 -33.265  0.00  0.00    +0.000 C 
ATOM     32  C   UNL     1     -44.264  -2.326 -33.999  0.00  0.00    +0.000 C 
ATOM     33  C   UNL     1     -44.351  -0.935 -33.367  0.00  0.00    +0.000 C 
ATOM     34  C   UNL     1     -44.087  -1.007 -31.865  0.00  0.00    +0.000 C 
ATOM     35  C   UNL     1     -45.033  -2.017 -31.223  0.00  0.00    +0.000 C 
ATOM     36  N   UNL     1     -44.826  -3.335 -31.830  0.00  0.00    +0.000 NA
ENDBRANCH  27  36
ENDBRANCH   1  27
TORSDOF 7
ENDMDL
MODEL 2
REMARK VINA RESULT:      -6.9      1.407      2.139
REMARK  Name = ZINC000008812094 PubChem-92346081
REMARK  7 active torsions:
REMARK  status: ('A' for Active; 'I' for Inactive)
REMARK    1  A    between atoms: C_1  and  S_27
REMARK    2  A    between atoms: C_11  and  C_13
REMARK    3  A    between atoms: N_15  and  C_17
REMARK    4  A    between atoms: C_17  and  C_18
REMARK    5  A    between atoms: C_18  and  C_19
REMARK    6  A    between atoms: C_19  and  N_20
REMARK    7  A    between atoms: S_27  and  N_36
REMARK                            x       y       z     vdW  Elec       q    Type
REMARK                         _______ _______ _______ _____ _____    ______ ____
ROOT
ATOM      1  C   UNL     1     -44.710  -5.327 -29.835  0.00  0.00    +0.000 A 
ATOM      2  C   UNL     1     -45.234  -5.817 -28.636  0.00  0.00    +0.000 A 
ATOM      3  C   UNL     1     -44.416  -6.503 -27.724  0.00  0.00    +0.000 A 
ATOM      4  C   UNL     1     -43.045  -6.675 -28.030  0.00  0.00    +0.000 A 
ATOM      5  C   UNL     1     -42.524  -6.179 -29.229  0.00  0.00    +0.000 A 
ATOM      6  C   UNL     1     -43.355  -5.508 -30.129  0.00  0.00    +0.000 A 
ATOM      7  N   UNL     1     -42.226  -7.319 -27.157  0.00  0.00    +0.000 N 
ATOM      8  C   UNL     1     -42.690  -7.813 -25.980  0.00  0.00    +0.000 A 
ATOM      9  O   UNL     1     -41.905  -8.405 -25.195  0.00  0.00    +0.000 OA
ATOM     10  C   UNL     1     -44.034  -7.668 -25.639  0.00  0.00    +0.000 A 
ATOM     11  C   UNL     1     -44.917  -7.006 -26.501  0.00  0.00    +0.000 A 
ATOM     12  H   UNL     1     -41.275  -7.430 -27.384  0.00  0.00    +0.000 HD
ENDROOT
BRANCH  11  13
ATOM     13  C   UNL     1     -46.353  -6.901 -26.130  0.00  0.00    +0.000 C 
ATOM     14  O   UNL     1     -46.741  -5.921 -25.439  0.00  0.00    +0.000 OA
ATOM     15  N   UNL     1     -47.324  -7.881 -26.520  0.00  0.00    +0.000 N 
ATOM     16  H   UNL     1     -48.263  -7.713 -26.278  0.00  0.00    +0.000 HD
BRANCH  15  17
ATOM     17  C   UNL     1     -47.025  -9.105 -27.247  0.00  0.00    +0.000 C 
BRANCH  17  18
ATOM     18  C   UNL     1     -47.304  -8.906 -28.726  0.00  0.00    +0.000 C 
BRANCH  18  19
ATOM     19  C   UNL     1     -46.906 -10.145 -29.509  0.00  0.00    +0.000 C 
BRANCH  19  20
ATOM     20  N   UNL     1     -46.138  -9.775 -30.688  0.00  0.00    +0.000 NA
ATOM     21  C   UNL     1     -46.933  -8.798 -31.422  0.00  0.00    +0.000 C 
ATOM     22  C   UNL     1     -46.685  -8.895 -32.930  0.00  0.00    +0.000 C 
ATOM     23  C   UNL     1     -45.231  -9.176 -33.323  0.00  0.00    +0.000 C 
ATOM     24  C   UNL     1     -44.228  -8.357 -32.521  0.00  0.00    +0.000 C 
ATOM     25  C   UNL     1     -43.842  -9.103 -31.247  0.00  0.00    +0.000 C 
ATOM     26  C   UNL     1     -44.957  -9.068 -30.207  0.00  0.00    +0.000 C 
ENDBRANCH  19  20
ENDBRANCH  18  19
ENDBRANCH  17  18
ENDBRANCH  15  17
ENDBRANCH  11  13
BRANCH   1  27
ATOM     27  S   UNL     1     -45.748  -4.475 -30.964  0.00  0.00    +0.000 S 
ATOM     28  O   UNL     1     -46.321  -5.465 -31.939  0.00  0.00    +0.000 OA
ATOM     29  O   UNL     1     -46.864  -3.810 -30.207  0.00  0.00    +0.000 OA
BRANCH  27  36
ATOM     30  C   UNL     1     -46.596  -2.965 -33.566  0.00  0.00    +0.000 C 
ATOM     31  C   UNL     1     -45.129  -3.275 -33.263  0.00  0.00    +0.000 C 
ATOM     32  C   UNL     1     -44.215  -2.283 -33.987  0.00  0.00    +0.000 C 
ATOM     33  C   UNL     1     -44.328  -0.888 -33.368  0.00  0.00    +0.000 C 
ATOM     34  C   UNL     1     -44.094  -0.945 -31.861  0.00  0.00    +0.000 C 
ATOM     35  C   UNL     1     -45.044  -1.959 -31.230  0.00  0.00    +0.000 C 
ATOM     36  N   UNL     1     -44.813  -3.280 -31.821  0.00  0.00    +0.000 NA
ENDBRANCH  27  36
ENDBRANCH   1  27
TORSDOF 7
ENDMDL
MODEL 3
REMARK VINA RESULT:      -6.9      9.332     12.809
REMARK  Name = ZINC000008812094 PubChem-92346081
REMARK  7 active torsions:
REMARK  status: ('A' for Active; 'I' for Inactive)
REMARK    1  A    between atoms: C_1  and  S_27
REMARK    2  A    between atoms: C_11  and  C_13
REMARK    3  A    between atoms: N_15  and  C_17
REMARK    4  A    between atoms: C_17  and  C_18
REMARK    5  A    between atoms: C_18  and  C_19
REMARK    6  A    between atoms: C_19  and  N_20
REMARK    7  A    between atoms: S_27  and  N_36
REMARK                            x       y       z     vdW  Elec       q    Type
REMARK                         _______ _______ _______ _____ _____    ______ ____
ROOT
ATOM      1  C   UNL     1     -44.836 -15.546 -25.690  0.00  0.00    +0.000 A 
ATOM      2  C   UNL     1     -44.724 -16.934 -25.566  0.00  0.00    +0.000 A 
ATOM      3  C   UNL     1     -43.918 -17.669 -26.449  0.00  0.00    +0.000 A 
ATOM      4  C   UNL     1     -43.203 -16.980 -27.458  0.00  0.00    +0.000 A 
ATOM      5  C   UNL     1     -43.316 -15.591 -27.576  0.00  0.00    +0.000 A 
ATOM      6  C   UNL     1     -44.131 -14.877 -26.694  0.00  0.00    +0.000 A 
ATOM      7  N   UNL     1     -42.401 -17.663 -28.316  0.00  0.00    +0.000 N 
ATOM      8  C   UNL     1     -42.261 -19.012 -28.234  0.00  0.00    +0.000 A 
ATOM      9  O   UNL     1     -41.510 -19.614 -29.045  0.00  0.00    +0.000 OA
ATOM     10  C   UNL     1     -42.947 -19.731 -27.257  0.00  0.00    +0.000 A 
ATOM     11  C   UNL     1     -43.781 -19.072 -26.345  0.00  0.00    +0.000 A 
ATOM     12  H   UNL     1     -41.911 -17.170 -29.012  0.00  0.00    +0.000 HD
ENDROOT
BRANCH  11  13
ATOM     13  C   UNL     1     -44.531 -19.869 -25.339  0.00  0.00    +0.000 C 
ATOM     14  O   UNL     1     -45.754 -20.107 -25.527  0.00  0.00    +0.000 OA
ATOM     15  N   UNL     1     -43.917 -20.377 -24.147  0.00  0.00    +0.000 N 
ATOM     16  H   UNL     1     -44.469 -20.939 -23.555  0.00  0.00    +0.000 HD
BRANCH  15  17
ATOM     17  C   UNL     1     -42.542 -20.124 -23.745  0.00  0.00    +0.000 C 
BRANCH  17  18
ATOM     18  C   UNL     1     -42.273 -20.774 -22.400  0.00  0.00    +0.000 C 
BRANCH  18  19
ATOM     19  C   UNL     1     -42.276 -19.726 -21.299  0.00  0.00    +0.000 C 
BRANCH  19  20
ATOM     20  N   UNL     1     -43.636 -19.461 -20.857  0.00  0.00    +0.000 NA
ATOM     21  C   UNL     1     -43.600 -19.371 -19.403  0.00  0.00    +0.000 C 
ATOM     22  C   UNL     1     -44.912 -19.856 -18.779  0.00  0.00    +0.000 C 
ATOM     23  C   UNL     1     -46.173 -19.464 -19.557  0.00  0.00    +0.000 C 
ATOM     24  C   UNL     1     -46.146 -18.023 -20.049  0.00  0.00    +0.000 C 
ATOM     25  C   UNL     1     -45.490 -17.951 -21.425  0.00  0.00    +0.000 C 
ATOM     26  C   UNL     1     -43.977 -18.129 -21.344  0.00  0.00    +0.000 C 
ENDBRANCH  19  20
ENDBRANCH  18  19
ENDBRANCH  17  18
ENDBRANCH  15  17
ENDBRANCH  11  13
BRANCH   1  27
ATOM     27  S   UNL     1     -45.851 -14.644 -24.579  0.00  0.00    +0.000 S 
ATOM     28  O   UNL     1     -45.908 -13.210 -25.026  0.00  0.00    +0.000 OA
ATOM     29  O   UNL     1     -47.237 -15.228 -24.588  0.00  0.00    +0.000 OA
BRANCH  27  36
ATOM     30  C   UNL     1     -43.429 -12.998 -23.486  0.00  0.00    +0.000 C 
ATOM     31  C   UNL     1     -43.737 -14.406 -22.972  0.00  0.00    +0.000 C 
ATOM     32  C   UNL     1     -43.169 -14.595 -21.564  0.00  0.00    +0.000 C 
ATOM     33  C   UNL     1     -43.950 -13.761 -20.546  0.00  0.00    +0.000 C 
ATOM     34  C   UNL     1     -45.445 -14.051 -20.644  0.00  0.00    +0.000 C 
ATOM     35  C   UNL     1     -45.918 -13.840 -22.080  0.00  0.00    +0.000 C 
ATOM     36  N   UNL     1     -45.176 -14.733 -22.975  0.00  0.00    +0.000 NA
ENDBRANCH  27  36
ENDBRANCH   1  27
TORSDOF 7
ENDMDL
