MODEL 1
REMARK VINA RESULT:      -7.8      0.000      0.000
REMARK  Name = ZINC000253471169 PubChem-124891265
REMARK  9 active torsions:
REMARK  status: ('A' for Active; 'I' for Inactive)
REMARK    1  A    between atoms: C_1  and  C_2
REMARK    2  A    between atoms: C_1  and  C_18
REMARK    3  A    between atoms: C_1  and  C_25
REMARK    4  A    between atoms: C_3  and  O_4
REMARK    5  A    between atoms: C_15  and  O_24
REMARK    6  A    between atoms: C_20  and  O_21
REMARK    7  A    between atoms: C_25  and  C_26
REMARK    8  A    between atoms: N_28  and  C_30
REMARK    9  A    between atoms: C_30  and  C_31
REMARK                            x       y       z     vdW  Elec       q    Type
REMARK                         _______ _______ _______ _____ _____    ______ ____
ROOT
ATOM      1  C   UNL     1     -46.079  -5.557 -30.295  0.00  0.00    +0.000 C 
ENDROOT
BRANCH   1   2
ATOM      2  C   UNL     1     -45.023  -4.638 -30.854  0.00  0.00    +0.000 A 
ATOM      3  C   UNL     1     -45.414  -3.404 -31.393  0.00  0.00    +0.000 A 
ATOM      4  C   UNL     1     -44.447  -2.546 -31.925  0.00  0.00    +0.000 A 
ATOM      5  C   UNL     1     -44.791  -1.298 -32.462  0.00  0.00    +0.000 A 
ATOM      6  C   UNL     1     -43.799  -0.466 -32.990  0.00  0.00    +0.000 A 
ATOM      7  C   UNL     1     -42.461  -0.878 -32.980  0.00  0.00    +0.000 A 
ATOM      8  C   UNL     1     -42.112  -2.120 -32.443  0.00  0.00    +0.000 A 
ATOM      9  C   UNL     1     -43.098  -2.957 -31.913  0.00  0.00    +0.000 A 
ATOM     10  O   UNL     1     -42.760  -4.135 -31.398  0.00  0.00    +0.000 OA
ATOM     11  C   UNL     1     -43.651  -4.974 -30.876  0.00  0.00    +0.000 A 
ATOM     12  O   UNL     1     -43.250  -6.068 -30.398  0.00  0.00    +0.000 OA
BRANCH   3  13
ATOM     13  O   UNL     1     -46.758  -3.034 -31.393  0.00  0.00    +0.000 OA
ATOM     14  H   UNL     1     -47.054  -2.341 -31.950  0.00  0.00    +0.000 HD
ENDBRANCH   3  13
ENDBRANCH   1   2
BRANCH   1  18
ATOM     15  C   UNL     1     -46.073  -9.441 -32.186  0.00  0.00    +0.000 A 
ATOM     16  C   UNL     1     -46.254  -8.284 -32.951  0.00  0.00    +0.000 A 
ATOM     17  C   UNL     1     -46.267  -7.024 -32.352  0.00  0.00    +0.000 A 
ATOM     18  C   UNL     1     -46.105  -6.900 -30.967  0.00  0.00    +0.000 A 
ATOM     19  C   UNL     1     -45.926  -8.048 -30.193  0.00  0.00    +0.000 A 
ATOM     20  C   UNL     1     -45.908  -9.315 -30.787  0.00  0.00    +0.000 A 
BRANCH  20  21
ATOM     21  O   UNL     1     -45.716 -10.423 -29.971  0.00  0.00    +0.000 OA
ATOM     22  H   UNL     1     -46.092 -10.444 -29.113  0.00  0.00    +0.000 HD
ENDBRANCH  20  21
BRANCH  15  24
ATOM     23  C   UNL     1     -45.835 -10.821 -34.258  0.00  0.00    +0.000 C 
ATOM     24  O   UNL     1     -46.065 -10.669 -32.864  0.00  0.00    +0.000 OA
ENDBRANCH  15  24
ENDBRANCH   1  18
BRANCH   1  25
ATOM     25  C   UNL     1     -46.068  -5.626 -28.766  0.00  0.00    +0.000 C 
BRANCH  25  26
ATOM     26  C   UNL     1     -46.935  -4.566 -28.176  0.00  0.00    +0.000 C 
ATOM     27  O   UNL     1     -47.743  -3.942 -28.912  0.00  0.00    +0.000 OA
ATOM     28  N   UNL     1     -46.846  -4.271 -26.781  0.00  0.00    +0.000 N 
ATOM     29  H   UNL     1     -46.144  -4.707 -26.248  0.00  0.00    +0.000 HD
BRANCH  28  30
ATOM     30  C   UNL     1     -47.756  -3.350 -26.121  0.00  0.00    +0.000 C 
BRANCH  30  31
ATOM     31  C   UNL     1     -47.423  -3.278 -24.673  0.00  0.00    +0.000 A 
ATOM     32  C   UNL     1     -47.120  -4.464 -23.966  0.00  0.00    +0.000 A 
ATOM     33  C   UNL     1     -46.777  -4.416 -22.604  0.00  0.00    +0.000 A 
ATOM     34  C   UNL     1     -46.746  -3.165 -21.994  0.00  0.00    +0.000 A 
ATOM     35  C   UNL     1     -47.032  -2.024 -22.672  0.00  0.00    +0.000 A 
ATOM     36  C   UNL     1     -47.373  -2.032 -24.023  0.00  0.00    +0.000 A 
ATOM     37  O   UNL     1     -46.926  -0.944 -21.818  0.00  0.00    +0.000 OA
ATOM     38  C   UNL     1     -46.555  -1.435 -20.522  0.00  0.00    +0.000 C 
ATOM     39  O   UNL     1     -46.448  -2.856 -20.681  0.00  0.00    +0.000 OA
ENDBRANCH  30  31
ENDBRANCH  28  30
ENDBRANCH  25  26
ENDBRANCH   1  25
TORSDOF 9
ENDMDL
MODEL 2
REMARK VINA RESULT:      -7.6      3.224      6.739
REMARK  Name = ZINC000253471169 PubChem-124891265
REMARK  9 active torsions:
REMARK  status: ('A' for Active; 'I' for Inactive)
REMARK    1  A    between atoms: C_1  and  C_2
REMARK    2  A    between atoms: C_1  and  C_18
REMARK    3  A    between atoms: C_1  and  C_25
REMARK    4  A    between atoms: C_3  and  O_4
REMARK    5  A    between atoms: C_15  and  O_24
REMARK    6  A    between atoms: C_20  and  O_21
REMARK    7  A    between atoms: C_25  and  C_26
REMARK    8  A    between atoms: N_28  and  C_30
REMARK    9  A    between atoms: C_30  and  C_31
REMARK                            x       y       z     vdW  Elec       q    Type
REMARK                         _______ _______ _______ _____ _____    ______ ____
ROOT
ATOM      1  C   UNL     1     -45.659  -6.123 -30.371  0.00  0.00    +0.000 C 
ENDROOT
BRANCH   1   2
ATOM      2  C   UNL     1     -45.397  -4.701 -30.798  0.00  0.00    +0.000 A 
ATOM      3  C   UNL     1     -44.142  -4.373 -31.331  0.00  0.00    +0.000 A 
ATOM      4  C   UNL     1     -43.882  -3.056 -31.721  0.00  0.00    +0.000 A 
ATOM      5  C   UNL     1     -42.647  -2.685 -32.270  0.00  0.00    +0.000 A 
ATOM      6  C   UNL     1     -42.418  -1.358 -32.646  0.00  0.00    +0.000 A 
ATOM      7  C   UNL     1     -43.423  -0.399 -32.475  0.00  0.00    +0.000 A 
ATOM      8  C   UNL     1     -44.658  -0.763 -31.931  0.00  0.00    +0.000 A 
ATOM      9  C   UNL     1     -44.894  -2.088 -31.553  0.00  0.00    +0.000 A 
ATOM     10  O   UNL     1     -46.072  -2.430 -31.042  0.00  0.00    +0.000 OA
ATOM     11  C   UNL     1     -46.359  -3.674 -30.667  0.00  0.00    +0.000 A 
ATOM     12  O   UNL     1     -47.503  -3.921 -30.201  0.00  0.00    +0.000 OA
BRANCH   3  13
ATOM     13  O   UNL     1     -43.164  -5.355 -31.476  0.00  0.00    +0.000 OA
ATOM     14  H   UNL     1     -43.403  -6.216 -31.758  0.00  0.00    +0.000 HD
ENDBRANCH   3  13
ENDBRANCH   1   2
BRANCH   1  18
ATOM     15  C   UNL     1     -45.118  -6.665 -26.120  0.00  0.00    +0.000 A 
ATOM     16  C   UNL     1     -44.055  -6.893 -27.001  0.00  0.00    +0.000 A 
ATOM     17  C   UNL     1     -44.219  -6.729 -28.377  0.00  0.00    +0.000 A 
ATOM     18  C   UNL     1     -45.458  -6.341 -28.899  0.00  0.00    +0.000 A 
ATOM     19  C   UNL     1     -46.526  -6.113 -28.029  0.00  0.00    +0.000 A 
ATOM     20  C   UNL     1     -46.370  -6.271 -26.648  0.00  0.00    +0.000 A 
BRANCH  20  21
ATOM     21  O   UNL     1     -47.463  -6.021 -25.827  0.00  0.00    +0.000 OA
ATOM     22  H   UNL     1     -48.284  -6.437 -26.001  0.00  0.00    +0.000 HD
ENDBRANCH  20  21
BRANCH  15  24
ATOM     23  C   UNL     1     -45.158  -8.030 -24.025  0.00  0.00    +0.000 C 
ATOM     24  O   UNL     1     -44.871  -6.843 -24.750  0.00  0.00    +0.000 OA
ENDBRANCH  15  24
ENDBRANCH   1  18
BRANCH   1  25
ATOM     25  C   UNL     1     -46.980  -6.679 -30.909  0.00  0.00    +0.000 C 
BRANCH  25  26
ATOM     26  C   UNL     1     -46.908  -8.159 -31.077  0.00  0.00    +0.000 C 
ATOM     27  O   UNL     1     -46.535  -8.642 -32.178  0.00  0.00    +0.000 OA
ATOM     28  N   UNL     1     -47.257  -9.015 -29.989  0.00  0.00    +0.000 N 
ATOM     29  H   UNL     1     -47.632  -8.615 -29.172  0.00  0.00    +0.000 HD
BRANCH  28  30
ATOM     30  C   UNL     1     -47.077 -10.457 -30.043  0.00  0.00    +0.000 C 
BRANCH  30  31
ATOM     31  C   UNL     1     -46.551 -10.939 -28.738  0.00  0.00    +0.000 A 
ATOM     32  C   UNL     1     -45.707 -10.103 -27.972  0.00  0.00    +0.000 A 
ATOM     33  C   UNL     1     -45.220 -10.530 -26.725  0.00  0.00    +0.000 A 
ATOM     34  C   UNL     1     -45.606 -11.792 -26.283  0.00  0.00    +0.000 A 
ATOM     35  C   UNL     1     -46.420 -12.595 -27.015  0.00  0.00    +0.000 A 
ATOM     36  C   UNL     1     -46.924 -12.206 -28.254  0.00  0.00    +0.000 A 
ATOM     37  O   UNL     1     -46.628 -13.780 -26.336  0.00  0.00    +0.000 OA
ATOM     38  C   UNL     1     -45.896 -13.721 -25.103  0.00  0.00    +0.000 C 
ATOM     39  O   UNL     1     -45.262 -12.434 -25.109  0.00  0.00    +0.000 OA
ENDBRANCH  30  31
ENDBRANCH  28  30
ENDBRANCH  25  26
ENDBRANCH   1  25
TORSDOF 9
ENDMDL
MODEL 3
REMARK VINA RESULT:      -7.4      1.702      2.995
REMARK  Name = ZINC000253471169 PubChem-124891265
REMARK  9 active torsions:
REMARK  status: ('A' for Active; 'I' for Inactive)
REMARK    1  A    between atoms: C_1  and  C_2
REMARK    2  A    between atoms: C_1  and  C_18
REMARK    3  A    between atoms: C_1  and  C_25
REMARK    4  A    between atoms: C_3  and  O_4
REMARK    5  A    between atoms: C_15  and  O_24
REMARK    6  A    between atoms: C_20  and  O_21
REMARK    7  A    between atoms: C_25  and  C_26
REMARK    8  A    between atoms: N_28  and  C_30
REMARK    9  A    between atoms: C_30  and  C_31
REMARK                            x       y       z     vdW  Elec       q    Type
REMARK                         _______ _______ _______ _____ _____    ______ ____
ROOT
ATOM      1  C   UNL     1     -45.543  -6.037 -30.989  0.00  0.00    +0.000 C 
ENDROOT
BRANCH   1   2
ATOM      2  C   UNL     1     -45.255  -4.579 -31.243  0.00  0.00    +0.000 A 
ATOM      3  C   UNL     1     -44.043  -4.223 -31.852  0.00  0.00    +0.000 A 
ATOM      4  C   UNL     1     -43.759  -2.874 -32.083  0.00  0.00    +0.000 A 
ATOM      5  C   UNL     1     -42.566  -2.472 -32.700  0.00  0.00    +0.000 A 
ATOM      6  C   UNL     1     -42.312  -1.114 -32.913  0.00  0.00    +0.000 A 
ATOM      7  C   UNL     1     -43.248  -0.154 -32.512  0.00  0.00    +0.000 A 
ATOM      8  C   UNL     1     -44.441  -0.549 -31.899  0.00  0.00    +0.000 A 
ATOM      9  C   UNL     1     -44.703  -1.905 -31.683  0.00  0.00    +0.000 A 
ATOM     10  O   UNL     1     -45.841  -2.275 -31.106  0.00  0.00    +0.000 OA
ATOM     11  C   UNL     1     -46.150  -3.549 -30.877  0.00  0.00    +0.000 A 
ATOM     12  O   UNL     1     -47.254  -3.819 -30.334  0.00  0.00    +0.000 OA
BRANCH   3  13
ATOM     13  O   UNL     1     -43.132  -5.208 -32.228  0.00  0.00    +0.000 OA
ATOM     14  H   UNL     1     -43.303  -6.107 -32.026  0.00  0.00    +0.000 HD
ENDBRANCH   3  13
ENDBRANCH   1   2
BRANCH   1  18
ATOM     15  C   UNL     1     -45.856  -8.351 -34.624  0.00  0.00    +0.000 A 
ATOM     16  C   UNL     1     -45.261  -8.904 -33.485  0.00  0.00    +0.000 A 
ATOM     17  C   UNL     1     -45.146  -8.164 -32.307  0.00  0.00    +0.000 A 
ATOM     18  C   UNL     1     -45.620  -6.849 -32.251  0.00  0.00    +0.000 A 
ATOM     19  C   UNL     1     -46.213  -6.286 -33.383  0.00  0.00    +0.000 A 
ATOM     20  C   UNL     1     -46.336  -7.022 -34.566  0.00  0.00    +0.000 A 
BRANCH  20  21
ATOM     21  O   UNL     1     -46.944  -6.417 -35.659  0.00  0.00    +0.000 OA
ATOM     22  H   UNL     1     -46.740  -6.704 -36.528  0.00  0.00    +0.000 HD
ENDBRANCH  20  21
BRANCH  15  24
ATOM     23  C   UNL     1     -46.386 -10.511 -35.768  0.00  0.00    +0.000 C 
ATOM     24  O   UNL     1     -45.941  -9.162 -35.766  0.00  0.00    +0.000 OA
ENDBRANCH  15  24
ENDBRANCH   1  18
BRANCH   1  25
ATOM     25  C   UNL     1     -44.647  -6.649 -29.910  0.00  0.00    +0.000 C 
BRANCH  25  26
ATOM     26  C   UNL     1     -45.432  -6.977 -28.685  0.00  0.00    +0.000 C 
ATOM     27  O   UNL     1     -45.480  -8.166 -28.277  0.00  0.00    +0.000 OA
ATOM     28  N   UNL     1     -46.117  -5.939 -27.982  0.00  0.00    +0.000 N 
ATOM     29  H   UNL     1     -46.140  -5.037 -28.373  0.00  0.00    +0.000 HD
BRANCH  28  30
ATOM     30  C   UNL     1     -46.783  -6.169 -26.710  0.00  0.00    +0.000 C 
BRANCH  30  31
ATOM     31  C   UNL     1     -46.974  -4.870 -26.011  0.00  0.00    +0.000 A 
ATOM     32  C   UNL     1     -47.183  -3.694 -26.765  0.00  0.00    +0.000 A 
ATOM     33  C   UNL     1     -47.391  -2.461 -26.123  0.00  0.00    +0.000 A 
ATOM     34  C   UNL     1     -47.387  -2.454 -24.731  0.00  0.00    +0.000 A 
ATOM     35  C   UNL     1     -47.192  -3.583 -24.004  0.00  0.00    +0.000 A 
ATOM     36  C   UNL     1     -46.985  -4.823 -24.605  0.00  0.00    +0.000 A 
ATOM     37  O   UNL     1     -47.235  -3.276 -22.659  0.00  0.00    +0.000 OA
ATOM     38  C   UNL     1     -47.468  -1.866 -22.530  0.00  0.00    +0.000 C 
ATOM     39  O   UNL     1     -47.562  -1.382 -23.877  0.00  0.00    +0.000 OA
ENDBRANCH  30  31
ENDBRANCH  28  30
ENDBRANCH  25  26
ENDBRANCH   1  25
TORSDOF 9
ENDMDL
