MODEL 1
REMARK VINA RESULT:      -7.7      0.000      0.000
REMARK  Name = ZINC000032678714 ZINC32678714 CSC028068244 MCULE-2237337451 MolPort-005-701-896 PubChem-39911757
REMARK  4 active torsions:
REMARK  status: ('A' for Active; 'I' for Inactive)
REMARK    1  A    between atoms: C_1  and  N_19
REMARK    2  A    between atoms: C_5  and  C_7
REMARK    3  A    between atoms: C_17  and  C_25
REMARK    4  A    between atoms: C_21  and  C_30
REMARK                            x       y       z     vdW  Elec       q    Type
REMARK                         _______ _______ _______ _____ _____    ______ ____
ROOT
ATOM      1  C   UNL     1     -46.792  -7.568 -31.940  0.00  0.00    +0.000 A 
ATOM      2  C   UNL     1     -46.513  -8.921 -31.697  0.00  0.00    +0.000 A 
ATOM      3  C   UNL     1     -46.341  -9.380 -30.389  0.00  0.00    +0.000 A 
ATOM      4  C   UNL     1     -46.458  -8.492 -29.317  0.00  0.00    +0.000 A 
ATOM      5  C   UNL     1     -46.750  -7.141 -29.546  0.00  0.00    +0.000 A 
ATOM      6  C   UNL     1     -46.922  -6.688 -30.862  0.00  0.00    +0.000 A 
ENDROOT
BRANCH   5   7
ATOM      7  C   UNL     1     -46.877  -6.206 -28.416  0.00  0.00    +0.000 A 
ATOM      8  N   UNL     1     -47.139  -4.881 -28.582  0.00  0.00    +0.000 NA
ATOM      9  C   UNL     1     -47.165  -4.428 -27.321  0.00  0.00    +0.000 A 
ATOM     10  C   UNL     1     -47.396  -3.125 -26.889  0.00  0.00    +0.000 A 
ATOM     11  C   UNL     1     -47.374  -2.889 -25.502  0.00  0.00    +0.000 A 
ATOM     12  C   UNL     1     -47.128  -3.948 -24.598  0.00  0.00    +0.000 A 
ATOM     13  C   UNL     1     -46.900  -5.253 -25.072  0.00  0.00    +0.000 A 
ATOM     14  C   UNL     1     -46.929  -5.448 -26.450  0.00  0.00    +0.000 A 
ATOM     15  N   UNL     1     -46.740  -6.594 -27.119  0.00  0.00    +0.000 N 
ATOM     16  H   UNL     1     -46.551  -7.491 -26.761  0.00  0.00    +0.000 HD
ENDBRANCH   5   7
BRANCH   1  19
ATOM     17  C   UNL     1     -46.112  -6.197 -33.983  0.00  0.00    +0.000 C 
ATOM     18  O   UNL     1     -45.985  -6.346 -35.226  0.00  0.00    +0.000 OA
ATOM     19  N   UNL     1     -46.997  -7.072 -33.270  0.00  0.00    +0.000 N 
ATOM     20  H   UNL     1     -47.816  -7.357 -33.735  0.00  0.00    +0.000 HD
BRANCH  17  25
ATOM     21  C   UNL     1     -44.756  -3.154 -32.462  0.00  0.00    +0.000 A 
ATOM     22  C   UNL     1     -43.724  -4.081 -32.378  0.00  0.00    +0.000 A 
ATOM     23  C   UNL     1     -42.367  -3.851 -31.808  0.00  0.00    +0.000 C 
ATOM     24  N   UNL     1     -44.088  -5.268 -32.903  0.00  0.00    +0.000 N 
ATOM     25  C   UNL     1     -45.363  -5.116 -33.313  0.00  0.00    +0.000 A 
ATOM     26  C   UNL     1     -45.806  -3.825 -33.070  0.00  0.00    +0.000 A 
ATOM     27  C   UNL     1     -47.113  -3.239 -33.489  0.00  0.00    +0.000 C 
ATOM     28  H   UNL     1     -43.536  -6.080 -32.971  0.00  0.00    +0.000 HD
BRANCH  21  30
ATOM     29  C   UNL     1     -43.993  -0.692 -32.768  0.00  0.00    +0.000 C 
ATOM     30  C   UNL     1     -44.750  -1.737 -32.024  0.00  0.00    +0.000 C 
ATOM     31  O   UNL     1     -45.393  -1.390 -30.999  0.00  0.00    +0.000 OA
ENDBRANCH  21  30
ENDBRANCH  17  25
ENDBRANCH   1  19
TORSDOF 4
ENDMDL
MODEL 2
REMARK VINA RESULT:      -7.6      1.939      2.879
REMARK  Name = ZINC000032678714 ZINC32678714 CSC028068244 MCULE-2237337451 MolPort-005-701-896 PubChem-39911757
REMARK  4 active torsions:
REMARK  status: ('A' for Active; 'I' for Inactive)
REMARK    1  A    between atoms: C_1  and  N_19
REMARK    2  A    between atoms: C_5  and  C_7
REMARK    3  A    between atoms: C_17  and  C_25
REMARK    4  A    between atoms: C_21  and  C_30
REMARK                            x       y       z     vdW  Elec       q    Type
REMARK                         _______ _______ _______ _____ _____    ______ ____
ROOT
ATOM      1  C   UNL     1     -47.299  -4.850 -30.850  0.00  0.00    +0.000 A 
ATOM      2  C   UNL     1     -46.791  -6.154 -30.942  0.00  0.00    +0.000 A 
ATOM      3  C   UNL     1     -46.374  -6.829 -29.792  0.00  0.00    +0.000 A 
ATOM      4  C   UNL     1     -46.473  -6.210 -28.544  0.00  0.00    +0.000 A 
ATOM      5  C   UNL     1     -46.993  -4.913 -28.438  0.00  0.00    +0.000 A 
ATOM      6  C   UNL     1     -47.409  -4.241 -29.596  0.00  0.00    +0.000 A 
ENDROOT
BRANCH   5   7
ATOM      7  C   UNL     1     -47.101  -4.261 -27.122  0.00  0.00    +0.000 A 
ATOM      8  N   UNL     1     -47.306  -2.924 -26.977  0.00  0.00    +0.000 NA
ATOM      9  C   UNL     1     -47.336  -2.776 -25.645  0.00  0.00    +0.000 A 
ATOM     10  C   UNL     1     -47.520  -1.600 -24.924  0.00  0.00    +0.000 A 
ATOM     11  C   UNL     1     -47.513  -1.694 -23.519  0.00  0.00    +0.000 A 
ATOM     12  C   UNL     1     -47.326  -2.944 -22.885  0.00  0.00    +0.000 A 
ATOM     13  C   UNL     1     -47.142  -4.112 -23.648  0.00  0.00    +0.000 A 
ATOM     14  C   UNL     1     -47.156  -3.979 -25.034  0.00  0.00    +0.000 A 
ATOM     15  N   UNL     1     -47.002  -4.946 -25.950  0.00  0.00    +0.000 N 
ATOM     16  H   UNL     1     -46.855  -5.909 -25.810  0.00  0.00    +0.000 HD
ENDBRANCH   5   7
BRANCH   1  19
ATOM     17  C   UNL     1     -46.980  -3.866 -33.184  0.00  0.00    +0.000 C 
ATOM     18  O   UNL     1     -47.553  -3.877 -34.304  0.00  0.00    +0.000 OA
ATOM     19  N   UNL     1     -47.756  -4.140 -32.009  0.00  0.00    +0.000 N 
ATOM     20  H   UNL     1     -48.684  -3.812 -31.998  0.00  0.00    +0.000 HD
BRANCH  17  25
ATOM     21  C   UNL     1     -43.322  -3.690 -33.210  0.00  0.00    +0.000 A 
ATOM     22  C   UNL     1     -43.731  -2.467 -32.692  0.00  0.00    +0.000 A 
ATOM     23  C   UNL     1     -42.850  -1.355 -32.237  0.00  0.00    +0.000 C 
ATOM     24  N   UNL     1     -45.075  -2.387 -32.629  0.00  0.00    +0.000 N 
ATOM     25  C   UNL     1     -45.539  -3.552 -33.121  0.00  0.00    +0.000 A 
ATOM     26  C   UNL     1     -44.491  -4.385 -33.478  0.00  0.00    +0.000 A 
ATOM     27  C   UNL     1     -44.597  -5.799 -33.947  0.00  0.00    +0.000 C 
ATOM     28  H   UNL     1     -45.609  -1.631 -32.292  0.00  0.00    +0.000 HD
BRANCH  21  30
ATOM     29  C   UNL     1     -41.207  -4.931 -32.361  0.00  0.00    +0.000 C 
ATOM     30  C   UNL     1     -41.937  -4.177 -33.417  0.00  0.00    +0.000 C 
ATOM     31  O   UNL     1     -41.346  -3.956 -34.507  0.00  0.00    +0.000 OA
ENDBRANCH  21  30
ENDBRANCH  17  25
ENDBRANCH   1  19
TORSDOF 4
ENDMDL
MODEL 3
REMARK VINA RESULT:      -7.1      3.566      7.164
REMARK  Name = ZINC000032678714 ZINC32678714 CSC028068244 MCULE-2237337451 MolPort-005-701-896 PubChem-39911757
REMARK  4 active torsions:
REMARK  status: ('A' for Active; 'I' for Inactive)
REMARK    1  A    between atoms: C_1  and  N_19
REMARK    2  A    between atoms: C_5  and  C_7
REMARK    3  A    between atoms: C_17  and  C_25
REMARK    4  A    between atoms: C_21  and  C_30
REMARK                            x       y       z     vdW  Elec       q    Type
REMARK                         _______ _______ _______ _____ _____    ______ ____
ROOT
ATOM      1  C   UNL     1     -47.335  -7.525 -30.369  0.00  0.00    +0.000 A 
ATOM      2  C   UNL     1     -47.447  -8.418 -31.444  0.00  0.00    +0.000 A 
ATOM      3  C   UNL     1     -47.006  -8.046 -32.717  0.00  0.00    +0.000 A 
ATOM      4  C   UNL     1     -46.442  -6.784 -32.918  0.00  0.00    +0.000 A 
ATOM      5  C   UNL     1     -46.311  -5.888 -31.849  0.00  0.00    +0.000 A 
ATOM      6  C   UNL     1     -46.756  -6.268 -30.575  0.00  0.00    +0.000 A 
ENDROOT
BRANCH   5   7
ATOM      7  C   UNL     1     -45.712  -4.560 -32.061  0.00  0.00    +0.000 A 
ATOM      8  N   UNL     1     -44.867  -4.290 -33.093  0.00  0.00    +0.000 NA
ATOM      9  C   UNL     1     -44.575  -2.997 -32.900  0.00  0.00    +0.000 A 
ATOM     10  C   UNL     1     -43.742  -2.188 -33.669  0.00  0.00    +0.000 A 
ATOM     11  C   UNL     1     -43.587  -0.849 -33.265  0.00  0.00    +0.000 A 
ATOM     12  C   UNL     1     -44.260  -0.362 -32.121  0.00  0.00    +0.000 A 
ATOM     13  C   UNL     1     -45.094  -1.209 -31.368  0.00  0.00    +0.000 A 
ATOM     14  C   UNL     1     -45.222  -2.527 -31.798  0.00  0.00    +0.000 A 
ATOM     15  N   UNL     1     -45.956  -3.501 -31.241  0.00  0.00    +0.000 N 
ATOM     16  H   UNL     1     -46.527  -3.461 -30.441  0.00  0.00    +0.000 HD
ENDBRANCH   5   7
BRANCH   1  19
ATOM     17  C   UNL     1     -47.044  -8.746 -28.146  0.00  0.00    +0.000 C 
ATOM     18  O   UNL     1     -47.079  -8.494 -26.914  0.00  0.00    +0.000 OA
ATOM     19  N   UNL     1     -47.756  -7.886 -29.047  0.00  0.00    +0.000 N 
ATOM     20  H   UNL     1     -48.609  -7.512 -28.729  0.00  0.00    +0.000 HD
BRANCH  17  25
ATOM     21  C   UNL     1     -44.712 -11.257 -29.439  0.00  0.00    +0.000 A 
ATOM     22  C   UNL     1     -45.888 -11.957 -29.198  0.00  0.00    +0.000 A 
ATOM     23  C   UNL     1     -46.124 -13.408 -29.441  0.00  0.00    +0.000 C 
ATOM     24  N   UNL     1     -46.848 -11.149 -28.706  0.00  0.00    +0.000 N 
ATOM     25  C   UNL     1     -46.290  -9.925 -28.613  0.00  0.00    +0.000 A 
ATOM     26  C   UNL     1     -44.980  -9.949 -29.066  0.00  0.00    +0.000 A 
ATOM     27  C   UNL     1     -44.074  -8.773 -29.233  0.00  0.00    +0.000 C 
ATOM     28  H   UNL     1     -47.768 -11.400 -28.464  0.00  0.00    +0.000 HD
BRANCH  21  30
ATOM     29  C   UNL     1     -43.125 -11.669 -31.450  0.00  0.00    +0.000 C 
ATOM     30  C   UNL     1     -43.439 -11.773 -29.998  0.00  0.00    +0.000 C 
ATOM     31  O   UNL     1     -42.592 -12.317 -29.243  0.00  0.00    +0.000 OA
ENDBRANCH  21  30
ENDBRANCH  17  25
ENDBRANCH   1  19
TORSDOF 4
ENDMDL
