MODEL 1
REMARK VINA RESULT:      -7.5      0.000      0.000
REMARK  Name = ZINC000409246055 PubChem-126252235
REMARK  6 active torsions:
REMARK  status: ('A' for Active; 'I' for Inactive)
REMARK    1  A    between atoms: N_1  and  C_32
REMARK    2  A    between atoms: C_8  and  C_12
REMARK    3  A    between atoms: N_19  and  C_21
REMARK    4  A    between atoms: C_21  and  C_22
REMARK    5  A    between atoms: C_29  and  O_36
REMARK    6  A    between atoms: C_33  and  O_37
REMARK                            x       y       z     vdW  Elec       q    Type
REMARK                         _______ _______ _______ _____ _____    ______ ____
ROOT
ATOM      1  N   UNL     1     -46.613 -10.067 -27.099  0.00  0.00    +0.000 N 
ATOM      2  C   UNL     1     -46.643 -11.461 -26.728  0.00  0.00    +0.000 C 
ATOM      3  O   UNL     1     -46.538 -11.806 -25.520  0.00  0.00    +0.000 OA
ATOM      4  N   UNL     1     -46.782 -12.470 -27.730  0.00  0.00    +0.000 N 
ATOM      5  C   UNL     1     -46.794 -12.143 -29.118  0.00  0.00    +0.000 C 
ATOM      6  O   UNL     1     -46.898 -13.067 -29.969  0.00  0.00    +0.000 OA
ATOM      7  C   UNL     1     -46.657 -10.737 -29.542  0.00  0.00    +0.000 C 
ATOM      8  C   UNL     1     -46.466 -10.471 -30.846  0.00  0.00    +0.000 C 
ATOM      9  C   UNL     1     -46.770  -9.701 -28.485  0.00  0.00    +0.000 C 
ATOM     10  O   UNL     1     -47.090  -8.518 -28.784  0.00  0.00    +0.000 OA
ATOM     11  H   UNL     1     -46.872 -13.411 -27.455  0.00  0.00    +0.000 HD
ENDROOT
BRANCH   8  12
ATOM     12  C   UNL     1     -46.133  -9.176 -31.462  0.00  0.00    +0.000 A 
ATOM     13  C   UNL     1     -47.142  -8.326 -31.979  0.00  0.00    +0.000 A 
ATOM     14  C   UNL     1     -46.822  -7.060 -32.497  0.00  0.00    +0.000 A 
ATOM     15  C   UNL     1     -45.483  -6.672 -32.464  0.00  0.00    +0.000 A 
ATOM     16  C   UNL     1     -44.509  -7.476 -31.943  0.00  0.00    +0.000 A 
ATOM     17  C   UNL     1     -43.299  -6.816 -32.046  0.00  0.00    +0.000 A 
ATOM     18  C   UNL     1     -43.615  -5.596 -32.652  0.00  0.00    +0.000 A 
ATOM     19  N   UNL     1     -44.945  -5.522 -32.894  0.00  0.00    +0.000 N 
ATOM     20  C   UNL     1     -44.798  -8.734 -31.420  0.00  0.00    +0.000 A 
BRANCH  19  21
ATOM     21  C   UNL     1     -45.634  -4.418 -33.547  0.00  0.00    +0.000 C 
BRANCH  21  22
ATOM     22  C   UNL     1     -45.254  -3.124 -32.911  0.00  0.00    +0.000 A 
ATOM     23  C   UNL     1     -45.709  -2.816 -31.624  0.00  0.00    +0.000 A 
ATOM     24  C   UNL     1     -45.378  -1.589 -31.040  0.00  0.00    +0.000 A 
ATOM     25  C   UNL     1     -44.597  -0.668 -31.743  0.00  0.00    +0.000 A 
ATOM     26  C   UNL     1     -44.146  -0.972 -33.032  0.00  0.00    +0.000 A 
ATOM     27  F   UNL     1     -43.393  -0.077 -33.715  0.00  0.00    +0.000 F 
ATOM     28  C   UNL     1     -44.477  -2.198 -33.617  0.00  0.00    +0.000 A 
ENDBRANCH  21  22
ENDBRANCH  19  21
ENDBRANCH   8  12
BRANCH   1  32
ATOM     29  C   UNL     1     -46.310  -7.024 -24.138  0.00  0.00    +0.000 A 
ATOM     30  C   UNL     1     -47.540  -7.646 -24.399  0.00  0.00    +0.000 A 
ATOM     31  C   UNL     1     -47.629  -8.647 -25.369  0.00  0.00    +0.000 A 
ATOM     32  C   UNL     1     -46.495  -9.045 -26.091  0.00  0.00    +0.000 A 
ATOM     33  C   UNL     1     -45.255  -8.428 -25.828  0.00  0.00    +0.000 A 
ATOM     34  C   UNL     1     -45.177  -7.420 -24.854  0.00  0.00    +0.000 A 
BRANCH  29  36
ATOM     35  C   UNL     1     -45.285  -6.110 -22.082  0.00  0.00    +0.000 C 
ATOM     36  O   UNL     1     -46.187  -6.019 -23.177  0.00  0.00    +0.000 OA
ENDBRANCH  29  36
BRANCH  33  37
ATOM     37  O   UNL     1     -44.116  -8.837 -26.533  0.00  0.00    +0.000 OA
ATOM     38  C   UNL     1     -43.281  -7.932 -27.242  0.00  0.00    +0.000 C 
ENDBRANCH  33  37
ENDBRANCH   1  32
TORSDOF 6
ENDMDL
MODEL 2
REMARK VINA RESULT:      -7.0      3.605      7.673
REMARK  Name = ZINC000409246055 PubChem-126252235
REMARK  6 active torsions:
REMARK  status: ('A' for Active; 'I' for Inactive)
REMARK    1  A    between atoms: N_1  and  C_32
REMARK    2  A    between atoms: C_8  and  C_12
REMARK    3  A    between atoms: N_19  and  C_21
REMARK    4  A    between atoms: C_21  and  C_22
REMARK    5  A    between atoms: C_29  and  O_36
REMARK    6  A    between atoms: C_33  and  O_37
REMARK                            x       y       z     vdW  Elec       q    Type
REMARK                         _______ _______ _______ _____ _____    ______ ____
ROOT
ATOM      1  N   UNL     1     -44.478  -7.029 -32.733  0.00  0.00    +0.000 N 
ATOM      2  C   UNL     1     -44.427  -7.982 -33.814  0.00  0.00    +0.000 C 
ATOM      3  O   UNL     1     -44.440  -7.595 -35.013  0.00  0.00    +0.000 OA
ATOM      4  N   UNL     1     -44.369  -9.383 -33.537  0.00  0.00    +0.000 N 
ATOM      5  C   UNL     1     -44.462  -9.881 -32.204  0.00  0.00    +0.000 C 
ATOM      6  O   UNL     1     -44.429 -11.126 -32.007  0.00  0.00    +0.000 OA
ATOM      7  C   UNL     1     -44.625  -8.942 -31.079  0.00  0.00    +0.000 C 
ATOM      8  C   UNL     1     -44.913  -9.436 -29.862  0.00  0.00    +0.000 C 
ATOM      9  C   UNL     1     -44.426  -7.500 -31.371  0.00  0.00    +0.000 C 
ATOM     10  O   UNL     1     -44.124  -6.698 -30.445  0.00  0.00    +0.000 OA
ATOM     11  H   UNL     1     -44.264 -10.017 -34.283  0.00  0.00    +0.000 HD
ENDROOT
BRANCH   8  12
ATOM     12  C   UNL     1     -45.286  -8.685 -28.651  0.00  0.00    +0.000 A 
ATOM     13  C   UNL     1     -46.620  -8.266 -28.427  0.00  0.00    +0.000 A 
ATOM     14  C   UNL     1     -46.981  -7.614 -27.235  0.00  0.00    +0.000 A 
ATOM     15  C   UNL     1     -45.981  -7.417 -26.284  0.00  0.00    +0.000 A 
ATOM     16  C   UNL     1     -44.698  -7.842 -26.483  0.00  0.00    +0.000 A 
ATOM     17  C   UNL     1     -43.952  -7.510 -25.368  0.00  0.00    +0.000 A 
ATOM     18  C   UNL     1     -44.860  -6.872 -24.515  0.00  0.00    +0.000 A 
ATOM     19  N   UNL     1     -46.087  -6.829 -25.084  0.00  0.00    +0.000 N 
ATOM     20  C   UNL     1     -44.314  -8.492 -27.652  0.00  0.00    +0.000 A 
BRANCH  19  21
ATOM     21  C   UNL     1     -47.273  -6.209 -24.509  0.00  0.00    +0.000 C 
BRANCH  21  22
ATOM     22  C   UNL     1     -47.294  -4.750 -24.820  0.00  0.00    +0.000 A 
ATOM     23  C   UNL     1     -47.392  -4.317 -26.146  0.00  0.00    +0.000 A 
ATOM     24  C   UNL     1     -47.381  -2.950 -26.439  0.00  0.00    +0.000 A 
ATOM     25  C   UNL     1     -47.267  -2.015 -25.406  0.00  0.00    +0.000 A 
ATOM     26  C   UNL     1     -47.163  -2.446 -24.080  0.00  0.00    +0.000 A 
ATOM     27  F   UNL     1     -47.048  -1.539 -23.080  0.00  0.00    +0.000 F 
ATOM     28  C   UNL     1     -47.174  -3.813 -23.787  0.00  0.00    +0.000 A 
ENDBRANCH  21  22
ENDBRANCH  19  21
ENDBRANCH   8  12
BRANCH   1  32
ATOM     29  C   UNL     1     -44.537  -2.845 -33.515  0.00  0.00    +0.000 A 
ATOM     30  C   UNL     1     -43.350  -3.580 -33.651  0.00  0.00    +0.000 A 
ATOM     31  C   UNL     1     -43.341  -4.953 -33.397  0.00  0.00    +0.000 A 
ATOM     32  C   UNL     1     -44.514  -5.615 -33.006  0.00  0.00    +0.000 A 
ATOM     33  C   UNL     1     -45.712  -4.883 -32.875  0.00  0.00    +0.000 A 
ATOM     34  C   UNL     1     -45.709  -3.502 -33.129  0.00  0.00    +0.000 A 
BRANCH  29  36
ATOM     35  C   UNL     1     -44.037  -0.514 -32.859  0.00  0.00    +0.000 C 
ATOM     36  O   UNL     1     -44.580  -1.470 -33.759  0.00  0.00    +0.000 OA
ENDBRANCH  29  36
BRANCH  33  37
ATOM     37  O   UNL     1     -46.889  -5.544 -32.505  0.00  0.00    +0.000 OA
ATOM     38  C   UNL     1     -47.470  -5.420 -31.215  0.00  0.00    +0.000 C 
ENDBRANCH  33  37
ENDBRANCH   1  32
TORSDOF 6
ENDMDL
MODEL 3
REMARK VINA RESULT:      -6.9      3.230      7.742
REMARK  Name = ZINC000409246055 PubChem-126252235
REMARK  6 active torsions:
REMARK  status: ('A' for Active; 'I' for Inactive)
REMARK    1  A    between atoms: N_1  and  C_32
REMARK    2  A    between atoms: C_8  and  C_12
REMARK    3  A    between atoms: N_19  and  C_21
REMARK    4  A    between atoms: C_21  and  C_22
REMARK    5  A    between atoms: C_29  and  O_36
REMARK    6  A    between atoms: C_33  and  O_37
REMARK                            x       y       z     vdW  Elec       q    Type
REMARK                         _______ _______ _______ _____ _____    ______ ____
ROOT
ATOM      1  N   UNL     1     -46.431  -7.719 -29.934  0.00  0.00    +0.000 N 
ATOM      2  C   UNL     1     -46.712  -8.781 -30.869  0.00  0.00    +0.000 C 
ATOM      3  O   UNL     1     -46.942  -8.526 -32.081  0.00  0.00    +0.000 OA
ATOM      4  N   UNL     1     -46.739 -10.140 -30.427  0.00  0.00    +0.000 N 
ATOM      5  C   UNL     1     -46.594 -10.477 -29.048  0.00  0.00    +0.000 C 
ATOM      6  O   UNL     1     -46.646 -11.687 -28.700  0.00  0.00    +0.000 OA
ATOM      7  C   UNL     1     -46.414  -9.409 -28.047  0.00  0.00    +0.000 C 
ATOM      8  C   UNL     1     -46.483  -9.729 -26.743  0.00  0.00    +0.000 C 
ATOM      9  C   UNL     1     -46.136  -8.044 -28.561  0.00  0.00    +0.000 C 
ATOM     10  O   UNL     1     -45.562  -7.193 -27.828  0.00  0.00    +0.000 OA
ATOM     11  H   UNL     1     -46.862 -10.859 -31.089  0.00  0.00    +0.000 HD
ENDROOT
BRANCH   8  12
ATOM     12  C   UNL     1     -46.508  -8.811 -25.592  0.00  0.00    +0.000 A 
ATOM     13  C   UNL     1     -47.727  -8.292 -25.090  0.00  0.00    +0.000 A 
ATOM     14  C   UNL     1     -47.748  -7.476 -23.947  0.00  0.00    +0.000 A 
ATOM     15  C   UNL     1     -46.529  -7.217 -23.322  0.00  0.00    +0.000 A 
ATOM     16  C   UNL     1     -45.352  -7.735 -23.784  0.00  0.00    +0.000 A 
ATOM     17  C   UNL     1     -44.333  -7.308 -22.956  0.00  0.00    +0.000 A 
ATOM     18  C   UNL     1     -44.970  -6.516 -21.994  0.00  0.00    +0.000 A 
ATOM     19  N   UNL     1     -46.303  -6.477 -22.227  0.00  0.00    +0.000 N 
ATOM     20  C   UNL     1     -45.303  -8.549 -24.913  0.00  0.00    +0.000 A 
BRANCH  19  21
ATOM     21  C   UNL     1     -47.281  -5.723 -21.457  0.00  0.00    +0.000 C 
BRANCH  21  22
ATOM     22  C   UNL     1     -47.184  -4.270 -21.779  0.00  0.00    +0.000 A 
ATOM     23  C   UNL     1     -47.142  -3.325 -20.749  0.00  0.00    +0.000 A 
ATOM     24  C   UNL     1     -47.082  -1.961 -21.052  0.00  0.00    +0.000 A 
ATOM     25  C   UNL     1     -47.068  -1.542 -22.385  0.00  0.00    +0.000 A 
ATOM     26  C   UNL     1     -47.115  -2.485 -23.417  0.00  0.00    +0.000 A 
ATOM     27  F   UNL     1     -47.106  -2.077 -24.709  0.00  0.00    +0.000 F 
ATOM     28  C   UNL     1     -47.176  -3.849 -23.114  0.00  0.00    +0.000 A 
ENDBRANCH  21  22
ENDBRANCH  19  21
ENDBRANCH   8  12
BRANCH   1  32
ATOM     29  C   UNL     1     -46.325  -3.680 -31.274  0.00  0.00    +0.000 A 
ATOM     30  C   UNL     1     -47.530  -4.260 -30.850  0.00  0.00    +0.000 A 
ATOM     31  C   UNL     1     -47.555  -5.584 -30.407  0.00  0.00    +0.000 A 
ATOM     32  C   UNL     1     -46.380  -6.350 -30.378  0.00  0.00    +0.000 A 
ATOM     33  C   UNL     1     -45.165  -5.770 -30.796  0.00  0.00    +0.000 A 
ATOM     34  C   UNL     1     -45.152  -4.438 -31.243  0.00  0.00    +0.000 A 
BRANCH  29  36
ATOM     35  C   UNL     1     -45.172  -1.498 -31.438  0.00  0.00    +0.000 C 
ATOM     36  O   UNL     1     -46.267  -2.359 -31.724  0.00  0.00    +0.000 OA
ENDBRANCH  29  36
BRANCH  33  37
ATOM     37  O   UNL     1     -43.986  -6.524 -30.749  0.00  0.00    +0.000 OA
ATOM     38  C   UNL     1     -42.764  -6.014 -30.233  0.00  0.00    +0.000 C 
ENDBRANCH  33  37
ENDBRANCH   1  32
TORSDOF 6
ENDMDL
