MODEL 1
REMARK VINA RESULT:      -8.0      0.000      0.000
REMARK  Name = ZINC000013148091 ZINC13148091 PubChem-25726336
REMARK  5 active torsions:
REMARK  status: ('A' for Active; 'I' for Inactive)
REMARK    1  A    between atoms: C_1  and  C_6
REMARK    2  A    between atoms: C_1  and  C_17
REMARK    3  A    between atoms: C_1  and  C_32
REMARK    4  A    between atoms: C_2  and  C_14
REMARK    5  A    between atoms: C_21  and  C_26
REMARK                            x       y       z     vdW  Elec       q    Type
REMARK                         _______ _______ _______ _____ _____    ______ ____
ROOT
ATOM      1  C   UNL     1     -46.437 -10.038 -28.643  0.00  0.00    +0.000 C 
ENDROOT
BRANCH   1   6
ATOM      2  C   UNL     1     -45.844 -13.128 -26.596  0.00  0.00    +0.000 C 
ATOM      3  N   UNL     1     -46.861 -13.182 -27.404  0.00  0.00    +0.000 NA
ATOM      4  C   UNL     1     -46.871 -12.518 -28.672  0.00  0.00    +0.000 C 
ATOM      5  O   UNL     1     -47.756 -12.814 -29.517  0.00  0.00    +0.000 OA
ATOM      6  C   UNL     1     -45.871 -11.433 -28.985  0.00  0.00    +0.000 C 
ATOM      7  C   UNL     1     -44.608 -11.691 -28.208  0.00  0.00    +0.000 C 
ATOM      8  O   UNL     1     -43.511 -11.230 -28.616  0.00  0.00    +0.000 OA
ATOM      9  N   UNL     1     -44.652 -12.438 -26.993  0.00  0.00    +0.000 N 
ATOM     10  H   UNL     1     -43.852 -12.480 -26.419  0.00  0.00    +0.000 HD
BRANCH   2  14
ATOM     11  C   UNL     1     -45.973 -15.158 -22.834  0.00  0.00    +0.000 A 
ATOM     12  C   UNL     1     -45.919 -13.763 -22.871  0.00  0.00    +0.000 A 
ATOM     13  C   UNL     1     -45.882 -13.100 -24.099  0.00  0.00    +0.000 A 
ATOM     14  C   UNL     1     -45.894 -13.825 -25.300  0.00  0.00    +0.000 A 
ATOM     15  C   UNL     1     -45.946 -15.225 -25.251  0.00  0.00    +0.000 A 
ATOM     16  C   UNL     1     -45.988 -15.888 -24.022  0.00  0.00    +0.000 A 
ENDBRANCH   2  14
ENDBRANCH   1   6
BRANCH   1  17
ATOM     17  C   UNL     1     -45.801  -9.410 -27.384  0.00  0.00    +0.000 C 
ATOM     18  C   UNL     1     -46.834  -9.137 -26.332  0.00  0.00    +0.000 C 
ATOM     19  O   UNL     1     -47.440 -10.092 -25.782  0.00  0.00    +0.000 OA
ATOM     20  N   UNL     1     -47.151  -7.795 -25.969  0.00  0.00    +0.000 N 
ATOM     21  C   UNL     1     -46.414  -6.684 -26.491  0.00  0.00    +0.000 C 
ATOM     22  N   UNL     1     -45.391  -6.885 -27.270  0.00  0.00    +0.000 NA
ATOM     23  C   UNL     1     -44.964  -8.190 -27.673  0.00  0.00    +0.000 C 
ATOM     24  O   UNL     1     -43.880  -8.317 -28.300  0.00  0.00    +0.000 OA
ATOM     25  H   UNL     1     -47.895  -7.628 -25.345  0.00  0.00    +0.000 HD
BRANCH  21  26
ATOM     26  C   UNL     1     -46.791  -5.311 -26.106  0.00  0.00    +0.000 A 
ATOM     27  C   UNL     1     -47.020  -4.342 -27.094  0.00  0.00    +0.000 A 
ATOM     28  C   UNL     1     -47.387  -3.042 -26.736  0.00  0.00    +0.000 A 
ATOM     29  C   UNL     1     -47.521  -2.698 -25.388  0.00  0.00    +0.000 A 
ATOM     30  C   UNL     1     -47.293  -3.657 -24.397  0.00  0.00    +0.000 A 
ATOM     31  C   UNL     1     -46.928  -4.959 -24.754  0.00  0.00    +0.000 A 
ENDBRANCH  21  26
ENDBRANCH   1  17
BRANCH   1  32
ATOM     32  C   UNL     1     -46.465  -9.090 -29.817  0.00  0.00    +0.000 A 
ATOM     33  C   UNL     1     -45.621  -9.274 -30.925  0.00  0.00    +0.000 A 
ATOM     34  C   UNL     1     -45.666  -8.386 -32.002  0.00  0.00    +0.000 A 
ATOM     35  C   UNL     1     -46.554  -7.307 -31.975  0.00  0.00    +0.000 A 
ATOM     36  C   UNL     1     -47.400  -7.121 -30.879  0.00  0.00    +0.000 A 
ATOM     37  C   UNL     1     -47.358  -8.012 -29.802  0.00  0.00    +0.000 A 
ATOM     38 CL   UNL     1     -46.604  -6.182 -33.312  0.00  0.00    +0.000 Cl
ENDBRANCH   1  32
TORSDOF 5
ENDMDL
MODEL 2
REMARK VINA RESULT:      -7.5      9.459     12.860
REMARK  Name = ZINC000013148091 ZINC13148091 PubChem-25726336
REMARK  5 active torsions:
REMARK  status: ('A' for Active; 'I' for Inactive)
REMARK    1  A    between atoms: C_1  and  C_6
REMARK    2  A    between atoms: C_1  and  C_17
REMARK    3  A    between atoms: C_1  and  C_32
REMARK    4  A    between atoms: C_2  and  C_14
REMARK    5  A    between atoms: C_21  and  C_26
REMARK                            x       y       z     vdW  Elec       q    Type
REMARK                         _______ _______ _______ _____ _____    ______ ____
ROOT
ATOM      1  C   UNL     1     -44.651 -18.273 -22.737  0.00  0.00    +0.000 C 
ENDROOT
BRANCH   1   6
ATOM      2  C   UNL     1     -43.388 -18.938 -26.209  0.00  0.00    +0.000 C 
ATOM      3  N   UNL     1     -44.586 -19.378 -25.958  0.00  0.00    +0.000 NA
ATOM      4  C   UNL     1     -45.485 -18.699 -25.075  0.00  0.00    +0.000 C 
ATOM      5  O   UNL     1     -46.703 -19.014 -25.072  0.00  0.00    +0.000 OA
ATOM      6  C   UNL     1     -44.980 -17.653 -24.112  0.00  0.00    +0.000 C 
ATOM      7  C   UNL     1     -43.758 -16.996 -24.697  0.00  0.00    +0.000 C 
ATOM      8  O   UNL     1     -43.432 -15.837 -24.337  0.00  0.00    +0.000 OA
ATOM      9  N   UNL     1     -42.950 -17.696 -25.643  0.00  0.00    +0.000 N 
ATOM     10  H   UNL     1     -42.080 -17.320 -25.911  0.00  0.00    +0.000 HD
BRANCH   2  14
ATOM     11  C   UNL     1     -40.823 -21.116 -28.849  0.00  0.00    +0.000 A 
ATOM     12  C   UNL     1     -42.081 -20.697 -29.288  0.00  0.00    +0.000 A 
ATOM     13  C   UNL     1     -42.917 -19.982 -28.427  0.00  0.00    +0.000 A 
ATOM     14  C   UNL     1     -42.504 -19.683 -27.121  0.00  0.00    +0.000 A 
ATOM     15  C   UNL     1     -41.241 -20.110 -26.689  0.00  0.00    +0.000 A 
ATOM     16  C   UNL     1     -40.403 -20.822 -27.552  0.00  0.00    +0.000 A 
ENDBRANCH   2  14
ENDBRANCH   1   6
BRANCH   1  17
ATOM     17  C   UNL     1     -43.139 -18.486 -22.506  0.00  0.00    +0.000 C 
ATOM     18  C   UNL     1     -42.817 -19.938 -22.318  0.00  0.00    +0.000 C 
ATOM     19  O   UNL     1     -42.980 -20.747 -23.267  0.00  0.00    +0.000 OA
ATOM     20  N   UNL     1     -42.351 -20.412 -21.056  0.00  0.00    +0.000 N 
ATOM     21  C   UNL     1     -42.051 -19.513 -19.983  0.00  0.00    +0.000 C 
ATOM     22  N   UNL     1     -42.145 -18.227 -20.160  0.00  0.00    +0.000 NA
ATOM     23  C   UNL     1     -42.572 -17.640 -21.394  0.00  0.00    +0.000 C 
ATOM     24  O   UNL     1     -42.492 -16.394 -21.543  0.00  0.00    +0.000 OA
ATOM     25  H   UNL     1     -42.231 -21.381 -20.921  0.00  0.00    +0.000 HD
BRANCH  21  26
ATOM     26  C   UNL     1     -41.592 -20.049 -18.688  0.00  0.00    +0.000 A 
ATOM     27  C   UNL     1     -40.973 -21.305 -18.627  0.00  0.00    +0.000 A 
ATOM     28  C   UNL     1     -40.528 -21.815 -17.404  0.00  0.00    +0.000 A 
ATOM     29  C   UNL     1     -40.704 -21.075 -16.232  0.00  0.00    +0.000 A 
ATOM     30  C   UNL     1     -41.322 -19.823 -16.283  0.00  0.00    +0.000 A 
ATOM     31  C   UNL     1     -41.766 -19.311 -17.506  0.00  0.00    +0.000 A 
ENDBRANCH  21  26
ENDBRANCH   1  17
BRANCH   1  32
ATOM     32  C   UNL     1     -45.326 -17.576 -21.580  0.00  0.00    +0.000 A 
ATOM     33  C   UNL     1     -45.601 -16.199 -21.617  0.00  0.00    +0.000 A 
ATOM     34  C   UNL     1     -46.228 -15.577 -20.536  0.00  0.00    +0.000 A 
ATOM     35  C   UNL     1     -46.582 -16.327 -19.412  0.00  0.00    +0.000 A 
ATOM     36  C   UNL     1     -46.316 -17.698 -19.371  0.00  0.00    +0.000 A 
ATOM     37  C   UNL     1     -45.691 -18.323 -20.454  0.00  0.00    +0.000 A 
ATOM     38 CL   UNL     1     -47.353 -15.550 -18.048  0.00  0.00    +0.000 Cl
ENDBRANCH   1  32
TORSDOF 5
ENDMDL
MODEL 3
REMARK VINA RESULT:      -7.4      4.500      9.724
REMARK  Name = ZINC000013148091 ZINC13148091 PubChem-25726336
REMARK  5 active torsions:
REMARK  status: ('A' for Active; 'I' for Inactive)
REMARK    1  A    between atoms: C_1  and  C_6
REMARK    2  A    between atoms: C_1  and  C_17
REMARK    3  A    between atoms: C_1  and  C_32
REMARK    4  A    between atoms: C_2  and  C_14
REMARK    5  A    between atoms: C_21  and  C_26
REMARK                            x       y       z     vdW  Elec       q    Type
REMARK                         _______ _______ _______ _____ _____    ______ ____
ROOT
ATOM      1  C   UNL     1     -45.989  -7.613 -30.578  0.00  0.00    +0.000 C 
ENDROOT
BRANCH   1   6
ATOM      2  C   UNL     1     -44.626  -4.132 -30.919  0.00  0.00    +0.000 C 
ATOM      3  N   UNL     1     -45.797  -4.219 -30.359  0.00  0.00    +0.000 NA
ATOM      4  C   UNL     1     -46.174  -5.328 -29.536  0.00  0.00    +0.000 C 
ATOM      5  O   UNL     1     -47.202  -5.239 -28.815  0.00  0.00    +0.000 OA
ATOM      6  C   UNL     1     -45.389  -6.615 -29.564  0.00  0.00    +0.000 C 
ATOM      7  C   UNL     1     -43.957  -6.309 -29.916  0.00  0.00    +0.000 C 
ATOM      8  O   UNL     1     -43.040  -7.096 -29.569  0.00  0.00    +0.000 OA
ATOM      9  N   UNL     1     -43.636  -5.137 -30.665  0.00  0.00    +0.000 N 
ATOM     10  H   UNL     1     -42.723  -5.018 -31.013  0.00  0.00    +0.000 HD
BRANCH   2  14
ATOM     11  C   UNL     1     -43.659  -0.754 -33.357  0.00  0.00    +0.000 A 
ATOM     12  C   UNL     1     -43.164  -2.017 -33.689  0.00  0.00    +0.000 A 
ATOM     13  C   UNL     1     -43.484  -3.121 -32.895  0.00  0.00    +0.000 A 
ATOM     14  C   UNL     1     -44.296  -2.971 -31.762  0.00  0.00    +0.000 A 
ATOM     15  C   UNL     1     -44.786  -1.698 -31.437  0.00  0.00    +0.000 A 
ATOM     16  C   UNL     1     -44.470  -0.595 -32.234  0.00  0.00    +0.000 A 
ENDBRANCH   2  14
ENDBRANCH   1   6
BRANCH   1  17
ATOM     17  C   UNL     1     -45.283  -7.592 -31.951  0.00  0.00    +0.000 C 
ATOM     18  C   UNL     1     -46.217  -7.148 -33.036  0.00  0.00    +0.000 C 
ATOM     19  O   UNL     1     -46.668  -5.974 -33.037  0.00  0.00    +0.000 OA
ATOM     20  N   UNL     1     -46.619  -8.060 -34.056  0.00  0.00    +0.000 N 
ATOM     21  C   UNL     1     -46.049  -9.370 -34.154  0.00  0.00    +0.000 C 
ATOM     22  N   UNL     1     -45.102  -9.735 -33.341  0.00  0.00    +0.000 NA
ATOM     23  C   UNL     1     -44.600  -8.889 -32.300  0.00  0.00    +0.000 C 
ATOM     24  O   UNL     1     -43.583  -9.248 -31.653  0.00  0.00    +0.000 OA
ATOM     25  H   UNL     1     -47.303  -7.783 -34.708  0.00  0.00    +0.000 HD
BRANCH  21  26
ATOM     26  C   UNL     1     -46.510 -10.290 -35.211  0.00  0.00    +0.000 A 
ATOM     27  C   UNL     1     -47.320  -9.813 -36.253  0.00  0.00    +0.000 A 
ATOM     28  C   UNL     1     -47.752 -10.677 -37.263  0.00  0.00    +0.000 A 
ATOM     29  C   UNL     1     -47.385 -12.024 -37.236  0.00  0.00    +0.000 A 
ATOM     30  C   UNL     1     -46.581 -12.509 -36.200  0.00  0.00    +0.000 A 
ATOM     31  C   UNL     1     -46.145 -11.645 -35.191  0.00  0.00    +0.000 A 
ENDBRANCH  21  26
ENDBRANCH   1  17
BRANCH   1  32
ATOM     32  C   UNL     1     -46.156  -9.009 -30.029  0.00  0.00    +0.000 A 
ATOM     33  C   UNL     1     -47.017  -9.936 -30.639  0.00  0.00    +0.000 A 
ATOM     34  C   UNL     1     -47.153 -11.223 -30.115  0.00  0.00    +0.000 A 
ATOM     35  C   UNL     1     -46.430 -11.590 -28.977  0.00  0.00    +0.000 A 
ATOM     36  C   UNL     1     -45.568 -10.674 -28.369  0.00  0.00    +0.000 A 
ATOM     37  C   UNL     1     -45.428  -9.386 -28.895  0.00  0.00    +0.000 A 
ATOM     38 CL   UNL     1     -46.609 -13.194 -28.306  0.00  0.00    +0.000 Cl
ENDBRANCH   1  32
TORSDOF 5
ENDMDL
