MODEL 1
REMARK VINA RESULT:      -7.5      0.000      0.000
REMARK  Name = ZINC000096114995 ZINC96114995 PubChem-97424600
REMARK  4 active torsions:
REMARK  status: ('A' for Active; 'I' for Inactive)
REMARK    1  A    between atoms: C_1  and  C_23
REMARK    2  A    between atoms: C_13  and  C_28
REMARK    3  A    between atoms: C_15  and  O_18
REMARK    4  A    between atoms: C_16  and  O_17
REMARK                            x       y       z     vdW  Elec       q    Type
REMARK                         _______ _______ _______ _____ _____    ______ ____
ROOT
ATOM      1  C   UNL     1     -46.698  -9.057 -28.130  0.00  0.00    +0.000 C 
ATOM      2  C   UNL     1     -46.147 -10.475 -28.304  0.00  0.00    +0.000 C 
ATOM      3  C   UNL     1     -46.674 -11.119 -29.537  0.00  0.00    +0.000 C 
ATOM      4  O   UNL     1     -46.929 -12.351 -29.547  0.00  0.00    +0.000 OA
ATOM      5  O   UNL     1     -46.847 -10.360 -30.691  0.00  0.00    +0.000 OA
ATOM      6  C   UNL     1     -46.827  -8.962 -30.664  0.00  0.00    +0.000 A 
ATOM      7  C   UNL     1     -46.775  -8.262 -29.436  0.00  0.00    +0.000 A 
ATOM      8  C   UNL     1     -46.922  -6.853 -29.451  0.00  0.00    +0.000 A 
ATOM      9  C   UNL     1     -46.993  -6.152 -30.683  0.00  0.00    +0.000 A 
ATOM     10  C   UNL     1     -47.107  -4.748 -30.637  0.00  0.00    +0.000 A 
ATOM     11  O   UNL     1     -47.164  -4.053 -31.687  0.00  0.00    +0.000 OA
ATOM     12  C   UNL     1     -47.167  -4.103 -29.408  0.00  0.00    +0.000 A 
ATOM     13  C   UNL     1     -47.112  -4.856 -28.233  0.00  0.00    +0.000 A 
ATOM     14  O   UNL     1     -46.996  -6.179 -28.303  0.00  0.00    +0.000 OA
ATOM     15  C   UNL     1     -46.962  -6.875 -31.894  0.00  0.00    +0.000 A 
ATOM     16  C   UNL     1     -46.897  -8.270 -31.875  0.00  0.00    +0.000 A 
ENDROOT
BRANCH   1  19
ATOM     17  C   UNL     1     -47.428  -8.732 -25.015  0.00  0.00    +0.000 C 
ATOM     18  C   UNL     1     -46.210  -8.228 -25.716  0.00  0.00    +0.000 A 
ATOM     19  C   UNL     1     -45.894  -8.391 -27.050  0.00  0.00    +0.000 A 
ATOM     20  C   UNL     1     -44.698  -7.715 -27.236  0.00  0.00    +0.000 A 
ATOM     21  N   UNL     1     -44.318  -7.197 -26.048  0.00  0.00    +0.000 NA
ATOM     22  N   UNL     1     -45.230  -7.512 -25.143  0.00  0.00    +0.000 N 
ATOM     23  C   UNL     1     -45.153  -7.112 -23.748  0.00  0.00    +0.000 C 
ENDBRANCH   1  19
BRANCH  13  24
ATOM     24  C   UNL     1     -47.179  -4.196 -26.912  0.00  0.00    +0.000 A 
ATOM     25  C   UNL     1     -47.174  -4.947 -25.725  0.00  0.00    +0.000 A 
ATOM     26  C   UNL     1     -47.242  -4.309 -24.483  0.00  0.00    +0.000 A 
ATOM     27  C   UNL     1     -47.314  -2.916 -24.416  0.00  0.00    +0.000 A 
ATOM     28  C   UNL     1     -47.318  -2.160 -25.591  0.00  0.00    +0.000 A 
ATOM     29  C   UNL     1     -47.250  -2.798 -26.833  0.00  0.00    +0.000 A 
ENDBRANCH  13  24
BRANCH  16  30
ATOM     30  O   UNL     1     -46.910  -8.976 -33.072  0.00  0.00    +0.000 OA
ATOM     31  H   UNL     1     -47.526  -8.752 -33.742  0.00  0.00    +0.000 HD
ENDBRANCH  16  30
BRANCH  15  32
ATOM     32  O   UNL     1     -47.016  -6.225 -33.124  0.00  0.00    +0.000 OA
ATOM     33  H   UNL     1     -47.833  -6.142 -33.574  0.00  0.00    +0.000 HD
ENDBRANCH  15  32
TORSDOF 4
ENDMDL
MODEL 2
REMARK VINA RESULT:      -7.2      9.564     13.155
REMARK  Name = ZINC000096114995 ZINC96114995 PubChem-97424600
REMARK  4 active torsions:
REMARK  status: ('A' for Active; 'I' for Inactive)
REMARK    1  A    between atoms: C_1  and  C_23
REMARK    2  A    between atoms: C_13  and  C_28
REMARK    3  A    between atoms: C_15  and  O_18
REMARK    4  A    between atoms: C_16  and  O_17
REMARK                            x       y       z     vdW  Elec       q    Type
REMARK                         _______ _______ _______ _____ _____    ______ ____
ROOT
ATOM      1  C   UNL     1     -42.811 -19.313 -23.341  0.00  0.00    +0.000 C 
ATOM      2  C   UNL     1     -42.559 -20.713 -22.773  0.00  0.00    +0.000 C 
ATOM      3  C   UNL     1     -42.419 -20.686 -21.292  0.00  0.00    +0.000 C 
ATOM      4  O   UNL     1     -41.606 -21.457 -20.721  0.00  0.00    +0.000 OA
ATOM      5  O   UNL     1     -43.220 -19.833 -20.540  0.00  0.00    +0.000 OA
ATOM      6  C   UNL     1     -43.941 -18.789 -21.128  0.00  0.00    +0.000 A 
ATOM      7  C   UNL     1     -43.770 -18.470 -22.495  0.00  0.00    +0.000 A 
ATOM      8  C   UNL     1     -44.396 -17.306 -23.006  0.00  0.00    +0.000 A 
ATOM      9  C   UNL     1     -45.276 -16.550 -22.189  0.00  0.00    +0.000 A 
ATOM     10  C   UNL     1     -45.896 -15.419 -22.760  0.00  0.00    +0.000 A 
ATOM     11  O   UNL     1     -46.699 -14.702 -22.104  0.00  0.00    +0.000 OA
ATOM     12  C   UNL     1     -45.616 -15.072 -24.075  0.00  0.00    +0.000 A 
ATOM     13  C   UNL     1     -44.723 -15.849 -24.817  0.00  0.00    +0.000 A 
ATOM     14  O   UNL     1     -44.157 -16.916 -24.258  0.00  0.00    +0.000 OA
ATOM     15  C   UNL     1     -45.489 -16.940 -20.850  0.00  0.00    +0.000 A 
ATOM     16  C   UNL     1     -44.809 -18.042 -20.328  0.00  0.00    +0.000 A 
ENDROOT
BRANCH   1  19
ATOM     17  C   UNL     1     -41.017 -19.020 -25.993  0.00  0.00    +0.000 C 
ATOM     18  C   UNL     1     -42.475 -19.332 -25.917  0.00  0.00    +0.000 A 
ATOM     19  C   UNL     1     -43.234 -19.477 -24.772  0.00  0.00    +0.000 A 
ATOM     20  C   UNL     1     -44.527 -19.715 -25.210  0.00  0.00    +0.000 A 
ATOM     21  N   UNL     1     -44.519 -19.730 -26.560  0.00  0.00    +0.000 NA
ATOM     22  N   UNL     1     -43.284 -19.502 -26.974  0.00  0.00    +0.000 N 
ATOM     23  C   UNL     1     -42.902 -19.439 -28.375  0.00  0.00    +0.000 C 
ENDBRANCH   1  19
BRANCH  13  24
ATOM     24  C   UNL     1     -44.402 -15.500 -26.216  0.00  0.00    +0.000 A 
ATOM     25  C   UNL     1     -43.230 -15.971 -26.831  0.00  0.00    +0.000 A 
ATOM     26  C   UNL     1     -42.938 -15.629 -28.155  0.00  0.00    +0.000 A 
ATOM     27  C   UNL     1     -43.814 -14.814 -28.875  0.00  0.00    +0.000 A 
ATOM     28  C   UNL     1     -44.983 -14.341 -28.273  0.00  0.00    +0.000 A 
ATOM     29  C   UNL     1     -45.275 -14.683 -26.949  0.00  0.00    +0.000 A 
ENDBRANCH  13  24
BRANCH  16  30
ATOM     30  O   UNL     1     -44.991 -18.394 -18.995  0.00  0.00    +0.000 OA
ATOM     31  H   UNL     1     -44.413 -19.013 -18.591  0.00  0.00    +0.000 HD
ENDBRANCH  16  30
BRANCH  15  32
ATOM     32  O   UNL     1     -46.355 -16.233 -20.021  0.00  0.00    +0.000 OA
ATOM     33  H   UNL     1     -46.032 -15.840 -19.234  0.00  0.00    +0.000 HD
ENDBRANCH  15  32
TORSDOF 4
ENDMDL
MODEL 3
REMARK VINA RESULT:      -7.1      5.701      9.298
REMARK  Name = ZINC000096114995 ZINC96114995 PubChem-97424600
REMARK  4 active torsions:
REMARK  status: ('A' for Active; 'I' for Inactive)
REMARK    1  A    between atoms: C_1  and  C_23
REMARK    2  A    between atoms: C_13  and  C_28
REMARK    3  A    between atoms: C_15  and  O_18
REMARK    4  A    between atoms: C_16  and  O_17
REMARK                            x       y       z     vdW  Elec       q    Type
REMARK                         _______ _______ _______ _____ _____    ______ ____
ROOT
ATOM      1  C   UNL     1     -42.046  -3.279 -33.717  0.00  0.00    +0.000 C 
ATOM      2  C   UNL     1     -40.991  -2.357 -33.098  0.00  0.00    +0.000 C 
ATOM      3  C   UNL     1     -41.586  -1.067 -32.652  0.00  0.00    +0.000 C 
ATOM      4  O   UNL     1     -40.931   0.001 -32.761  0.00  0.00    +0.000 OA
ATOM      5  O   UNL     1     -42.853  -1.056 -32.078  0.00  0.00    +0.000 OA
ATOM      6  C   UNL     1     -43.714  -2.154 -32.169  0.00  0.00    +0.000 A 
ATOM      7  C   UNL     1     -43.384  -3.269 -32.974  0.00  0.00    +0.000 A 
ATOM      8  C   UNL     1     -44.356  -4.282 -33.164  0.00  0.00    +0.000 A 
ATOM      9  C   UNL     1     -45.587  -4.235 -32.458  0.00  0.00    +0.000 A 
ATOM     10  C   UNL     1     -46.504  -5.287 -32.662  0.00  0.00    +0.000 A 
ATOM     11  O   UNL     1     -47.612  -5.324 -32.065  0.00  0.00    +0.000 OA
ATOM     12  C   UNL     1     -46.190  -6.309 -33.549  0.00  0.00    +0.000 A 
ATOM     13  C   UNL     1     -44.969  -6.283 -34.227  0.00  0.00    +0.000 A 
ATOM     14  O   UNL     1     -44.118  -5.283 -34.010  0.00  0.00    +0.000 OA
ATOM     15  C   UNL     1     -45.854  -3.148 -31.600  0.00  0.00    +0.000 A 
ATOM     16  C   UNL     1     -44.926  -2.112 -31.476  0.00  0.00    +0.000 A 
ENDROOT
BRANCH   1  19
ATOM     17  C   UNL     1     -41.592  -4.999 -36.396  0.00  0.00    +0.000 C 
ATOM     18  C   UNL     1     -41.249  -5.394 -34.998  0.00  0.00    +0.000 A 
ATOM     19  C   UNL     1     -41.427  -4.640 -33.854  0.00  0.00    +0.000 A 
ATOM     20  C   UNL     1     -41.003  -5.443 -32.808  0.00  0.00    +0.000 A 
ATOM     21  N   UNL     1     -40.572  -6.615 -33.323  0.00  0.00    +0.000 NA
ATOM     22  N   UNL     1     -40.721  -6.575 -34.637  0.00  0.00    +0.000 N 
ATOM     23  C   UNL     1     -40.367  -7.671 -35.522  0.00  0.00    +0.000 C 
ENDBRANCH   1  19
BRANCH  13  24
ATOM     24  C   UNL     1     -44.613  -7.354 -35.180  0.00  0.00    +0.000 A 
ATOM     25  C   UNL     1     -43.965  -8.524 -34.748  0.00  0.00    +0.000 A 
ATOM     26  C   UNL     1     -43.631  -9.527 -35.662  0.00  0.00    +0.000 A 
ATOM     27  C   UNL     1     -43.942  -9.371 -37.015  0.00  0.00    +0.000 A 
ATOM     28  C   UNL     1     -44.587  -8.212 -37.454  0.00  0.00    +0.000 A 
ATOM     29  C   UNL     1     -44.921  -7.209 -36.540  0.00  0.00    +0.000 A 
ENDBRANCH  13  24
BRANCH  16  30
ATOM     30  O   UNL     1     -45.215  -1.023 -30.660  0.00  0.00    +0.000 OA
ATOM     31  H   UNL     1     -46.094  -0.700 -30.605  0.00  0.00    +0.000 HD
ENDBRANCH  16  30
BRANCH  15  32
ATOM     32  O   UNL     1     -47.042  -3.072 -30.879  0.00  0.00    +0.000 OA
ATOM     33  H   UNL     1     -47.514  -3.854 -30.671  0.00  0.00    +0.000 HD
ENDBRANCH  15  32
TORSDOF 4
ENDMDL
