MODEL 1
REMARK VINA RESULT:      -6.3      0.000      0.000
REMARK  Name = ZINC000004878453 PubChem-92237773
REMARK  9 active torsions:
REMARK  status: ('A' for Active; 'I' for Inactive)
REMARK    1  A    between atoms: N_17  and  C_20
REMARK    2  A    between atoms: C_20  and  C_21
REMARK    3  A    between atoms: C_21  and  O_22
REMARK    4  A    between atoms: C_21  and  C_24
REMARK    5  A    between atoms: C_24  and  O_25
REMARK    6  A    between atoms: C_24  and  C_27
REMARK    7  A    between atoms: C_27  and  O_28
REMARK    8  A    between atoms: C_27  and  C_30
REMARK    9  A    between atoms: C_30  and  O_31
REMARK                            x       y       z     vdW  Elec       q    Type
REMARK                         _______ _______ _______ _____ _____    ______ ____
ROOT
ATOM      1  C   UNL     1     -47.387 -13.716 -20.266  0.00  0.00    +0.000 C 
ATOM      2  C   UNL     1     -46.645 -15.007 -20.336  0.00  0.00    +0.000 A 
ATOM      3  C   UNL     1     -46.441 -15.801 -19.195  0.00  0.00    +0.000 A 
ATOM      4  C   UNL     1     -45.738 -17.003 -19.302  0.00  0.00    +0.000 A 
ATOM      5  C   UNL     1     -45.225 -17.440 -20.537  0.00  0.00    +0.000 A 
ATOM      6  C   UNL     1     -45.445 -16.630 -21.682  0.00  0.00    +0.000 A 
ATOM      7  C   UNL     1     -46.146 -15.427 -21.571  0.00  0.00    +0.000 A 
ATOM      8  C   UNL     1     -44.969 -17.025 -22.929  0.00  0.00    +0.000 A 
ATOM      9  C   UNL     1     -44.279 -18.223 -23.053  0.00  0.00    +0.000 A 
ATOM     10  C   UNL     1     -43.773 -18.694 -24.266  0.00  0.00    +0.000 A 
ATOM     11  O   UNL     1     -43.922 -18.033 -25.328  0.00  0.00    +0.000 OA
ATOM     12  N   UNL     1     -43.114 -19.883 -24.301  0.00  0.00    +0.000 N 
ATOM     13  C   UNL     1     -42.924 -20.639 -23.186  0.00  0.00    +0.000 A 
ATOM     14  O   UNL     1     -42.307 -21.732 -23.272  0.00  0.00    +0.000 OA
ATOM     15  N   UNL     1     -43.395 -20.226 -21.979  0.00  0.00    +0.000 NA
ATOM     16  C   UNL     1     -44.065 -19.050 -21.850  0.00  0.00    +0.000 A 
ATOM     17  N   UNL     1     -44.529 -18.623 -20.636  0.00  0.00    +0.000 N 
ATOM     18  C   UNL     1     -46.958 -15.392 -17.858  0.00  0.00    +0.000 C 
ATOM     19  H   UNL     1     -42.761 -20.205 -25.162  0.00  0.00    +0.000 HD
ENDROOT
BRANCH  17  20
ATOM     20  C   UNL     1     -44.297 -19.462 -19.454  0.00  0.00    +0.000 C 
BRANCH  20  21
ATOM     21  C   UNL     1     -42.880 -19.295 -18.908  0.00  0.00    +0.000 C 
BRANCH  21  22
ATOM     22  O   UNL     1     -42.908 -18.324 -17.907  0.00  0.00    +0.000 OA
ATOM     23  H   UNL     1     -43.818 -18.014 -17.781  0.00  0.00    +0.000 HD
ENDBRANCH  21  22
BRANCH  21  24
ATOM     24  C   UNL     1     -42.331 -20.613 -18.349  0.00  0.00    +0.000 C 
BRANCH  24  25
ATOM     25  O   UNL     1     -43.286 -21.626 -18.469  0.00  0.00    +0.000 OA
ATOM     26  H   UNL     1     -42.921 -22.354 -18.997  0.00  0.00    +0.000 HD
ENDBRANCH  24  25
BRANCH  24  27
ATOM     27  C   UNL     1     -41.043 -21.030 -19.063  0.00  0.00    +0.000 C 
BRANCH  27  28
ATOM     28  O   UNL     1     -40.813 -20.218 -20.176  0.00  0.00    +0.000 OA
ATOM     29  H   UNL     1     -41.660 -19.982 -20.586  0.00  0.00    +0.000 HD
ENDBRANCH  27  28
BRANCH  27  30
ATOM     30  C   UNL     1     -41.124 -22.486 -19.487  0.00  0.00    +0.000 C 
BRANCH  30  31
ATOM     31  O   UNL     1     -41.870 -22.596 -20.661  0.00  0.00    +0.000 OA
ATOM     32  H   UNL     1     -42.787 -22.827 -20.441  0.00  0.00    +0.000 HD
ENDBRANCH  30  31
ENDBRANCH  27  30
ENDBRANCH  24  27
ENDBRANCH  21  24
ENDBRANCH  20  21
ENDBRANCH  17  20
TORSDOF 9
ENDMDL
MODEL 2
REMARK VINA RESULT:      -5.7     12.867     16.438
REMARK  Name = ZINC000004878453 PubChem-92237773
REMARK  9 active torsions:
REMARK  status: ('A' for Active; 'I' for Inactive)
REMARK    1  A    between atoms: N_17  and  C_20
REMARK    2  A    between atoms: C_20  and  C_21
REMARK    3  A    between atoms: C_21  and  O_22
REMARK    4  A    between atoms: C_21  and  C_24
REMARK    5  A    between atoms: C_24  and  O_25
REMARK    6  A    between atoms: C_24  and  C_27
REMARK    7  A    between atoms: C_27  and  O_28
REMARK    8  A    between atoms: C_27  and  C_30
REMARK    9  A    between atoms: C_30  and  O_31
REMARK                            x       y       z     vdW  Elec       q    Type
REMARK                         _______ _______ _______ _____ _____    ______ ____
ROOT
ATOM      1  C   UNL     1     -47.365  -2.785 -23.248  0.00  0.00    +0.000 C 
ATOM      2  C   UNL     1     -47.248  -3.474 -24.565  0.00  0.00    +0.000 A 
ATOM      3  C   UNL     1     -47.414  -2.779 -25.775  0.00  0.00    +0.000 A 
ATOM      4  C   UNL     1     -47.298  -3.461 -26.989  0.00  0.00    +0.000 A 
ATOM      5  C   UNL     1     -47.019  -4.839 -27.026  0.00  0.00    +0.000 A 
ATOM      6  C   UNL     1     -46.847  -5.526 -25.796  0.00  0.00    +0.000 A 
ATOM      7  C   UNL     1     -46.965  -4.842 -24.584  0.00  0.00    +0.000 A 
ATOM      8  C   UNL     1     -46.555  -6.887 -25.780  0.00  0.00    +0.000 A 
ATOM      9  C   UNL     1     -46.426  -7.575 -26.979  0.00  0.00    +0.000 A 
ATOM     10  C   UNL     1     -46.130  -8.938 -27.051  0.00  0.00    +0.000 A 
ATOM     11  O   UNL     1     -45.968  -9.621 -26.005  0.00  0.00    +0.000 OA
ATOM     12  N   UNL     1     -46.015  -9.535 -28.267  0.00  0.00    +0.000 N 
ATOM     13  C   UNL     1     -46.180  -8.847 -29.431  0.00  0.00    +0.000 A 
ATOM     14  O   UNL     1     -46.062  -9.447 -30.530  0.00  0.00    +0.000 OA
ATOM     15  N   UNL     1     -46.470  -7.519 -29.415  0.00  0.00    +0.000 NA
ATOM     16  C   UNL     1     -46.605  -6.841 -28.245  0.00  0.00    +0.000 A 
ATOM     17  N   UNL     1     -46.910  -5.508 -28.225  0.00  0.00    +0.000 N 
ATOM     18  C   UNL     1     -47.714  -1.319 -25.801  0.00  0.00    +0.000 C 
ATOM     19  H   UNL     1     -45.806 -10.496 -28.307  0.00  0.00    +0.000 HD
ENDROOT
BRANCH  17  20
ATOM     20  C   UNL     1     -47.090  -4.802 -29.500  0.00  0.00    +0.000 C 
BRANCH  20  21
ATOM     21  C   UNL     1     -45.760  -4.306 -30.066  0.00  0.00    +0.000 C 
BRANCH  21  22
ATOM     22  O   UNL     1     -45.088  -5.395 -30.623  0.00  0.00    +0.000 OA
ATOM     23  H   UNL     1     -45.229  -5.406 -31.583  0.00  0.00    +0.000 HD
ENDBRANCH  21  22
BRANCH  21  24
ATOM     24  C   UNL     1     -45.968  -3.217 -31.124  0.00  0.00    +0.000 C 
BRANCH  24  25
ATOM     25  O   UNL     1     -45.807  -1.950 -30.555  0.00  0.00    +0.000 OA
ATOM     26  H   UNL     1     -45.290  -2.027 -29.738  0.00  0.00    +0.000 HD
ENDBRANCH  24  25
BRANCH  24  27
ATOM     27  C   UNL     1     -45.000  -3.384 -32.297  0.00  0.00    +0.000 C 
BRANCH  27  28
ATOM     28  O   UNL     1     -43.676  -3.321 -31.855  0.00  0.00    +0.000 OA
ATOM     29  H   UNL     1     -43.629  -2.781 -31.050  0.00  0.00    +0.000 HD
ENDBRANCH  27  28
BRANCH  27  30
ATOM     30  C   UNL     1     -45.250  -2.312 -33.344  0.00  0.00    +0.000 C 
BRANCH  30  31
ATOM     31  O   UNL     1     -44.542  -1.155 -33.017  0.00  0.00    +0.000 OA
ATOM     32  H   UNL     1     -43.800  -1.385 -32.435  0.00  0.00    +0.000 HD
ENDBRANCH  30  31
ENDBRANCH  27  30
ENDBRANCH  24  27
ENDBRANCH  21  24
ENDBRANCH  20  21
ENDBRANCH  17  20
TORSDOF 9
ENDMDL
MODEL 3
REMARK VINA RESULT:      -5.6      3.400      6.020
REMARK  Name = ZINC000004878453 PubChem-92237773
REMARK  9 active torsions:
REMARK  status: ('A' for Active; 'I' for Inactive)
REMARK    1  A    between atoms: N_17  and  C_20
REMARK    2  A    between atoms: C_20  and  C_21
REMARK    3  A    between atoms: C_21  and  O_22
REMARK    4  A    between atoms: C_21  and  C_24
REMARK    5  A    between atoms: C_24  and  O_25
REMARK    6  A    between atoms: C_24  and  C_27
REMARK    7  A    between atoms: C_27  and  O_28
REMARK    8  A    between atoms: C_27  and  C_30
REMARK    9  A    between atoms: C_30  and  O_31
REMARK                            x       y       z     vdW  Elec       q    Type
REMARK                         _______ _______ _______ _____ _____    ______ ____
ROOT
ATOM      1  C   UNL     1     -46.294 -15.847 -18.332  0.00  0.00    +0.000 C 
ATOM      2  C   UNL     1     -46.062 -16.052 -19.790  0.00  0.00    +0.000 A 
ATOM      3  C   UNL     1     -45.786 -17.324 -20.319  0.00  0.00    +0.000 A 
ATOM      4  C   UNL     1     -45.573 -17.474 -21.691  0.00  0.00    +0.000 A 
ATOM      5  C   UNL     1     -45.627 -16.371 -22.562  0.00  0.00    +0.000 A 
ATOM      6  C   UNL     1     -45.913 -15.093 -22.013  0.00  0.00    +0.000 A 
ATOM      7  C   UNL     1     -46.124 -14.946 -20.641  0.00  0.00    +0.000 A 
ATOM      8  C   UNL     1     -45.991 -13.972 -22.835  0.00  0.00    +0.000 A 
ATOM      9  C   UNL     1     -45.793 -14.107 -24.203  0.00  0.00    +0.000 A 
ATOM     10  C   UNL     1     -45.858 -13.037 -25.095  0.00  0.00    +0.000 A 
ATOM     11  O   UNL     1     -46.103 -11.869 -24.689  0.00  0.00    +0.000 OA
ATOM     12  N   UNL     1     -45.658 -13.257 -26.422  0.00  0.00    +0.000 N 
ATOM     13  C   UNL     1     -45.390 -14.496 -26.919  0.00  0.00    +0.000 A 
ATOM     14  O   UNL     1     -45.213 -14.646 -28.155  0.00  0.00    +0.000 OA
ATOM     15  N   UNL     1     -45.314 -15.572 -26.091  0.00  0.00    +0.000 NA
ATOM     16  C   UNL     1     -45.500 -15.445 -24.751  0.00  0.00    +0.000 A 
ATOM     17  N   UNL     1     -45.411 -16.523 -23.913  0.00  0.00    +0.000 N 
ATOM     18  C   UNL     1     -45.714 -18.532 -19.448  0.00  0.00    +0.000 C 
ATOM     19  H   UNL     1     -45.706 -12.494 -27.043  0.00  0.00    +0.000 HD
ENDROOT
BRANCH  17  20
ATOM     20  C   UNL     1     -45.112 -17.842 -24.484  0.00  0.00    +0.000 C 
BRANCH  20  21
ATOM     21  C   UNL     1     -43.645 -17.964 -24.894  0.00  0.00    +0.000 C 
BRANCH  21  22
ATOM     22  O   UNL     1     -42.941 -18.537 -23.835  0.00  0.00    +0.000 OA
ATOM     23  H   UNL     1     -42.255 -17.922 -23.532  0.00  0.00    +0.000 HD
ENDBRANCH  21  22
BRANCH  21  24
ATOM     24  C   UNL     1     -43.481 -18.814 -26.159  0.00  0.00    +0.000 C 
BRANCH  24  25
ATOM     25  O   UNL     1     -44.607 -18.689 -26.978  0.00  0.00    +0.000 OA
ATOM     26  H   UNL     1     -44.691 -17.769 -27.275  0.00  0.00    +0.000 HD
ENDBRANCH  24  25
BRANCH  24  27
ATOM     27  C   UNL     1     -42.227 -18.419 -26.941  0.00  0.00    +0.000 C 
BRANCH  27  28
ATOM     28  O   UNL     1     -41.076 -18.741 -26.218  0.00  0.00    +0.000 OA
ATOM     29  H   UNL     1     -41.157 -19.640 -25.863  0.00  0.00    +0.000 HD
ENDBRANCH  27  28
BRANCH  27  30
ATOM     30  C   UNL     1     -42.248 -16.933 -27.253  0.00  0.00    +0.000 C 
BRANCH  30  31
ATOM     31  O   UNL     1     -43.173 -16.674 -28.264  0.00  0.00    +0.000 OA
ATOM     32  H   UNL     1     -43.195 -15.721 -28.445  0.00  0.00    +0.000 HD
ENDBRANCH  30  31
ENDBRANCH  27  30
ENDBRANCH  24  27
ENDBRANCH  21  24
ENDBRANCH  20  21
ENDBRANCH  17  20
TORSDOF 9
ENDMDL
