MODEL 1
REMARK VINA RESULT:      -6.3      0.000      0.000
REMARK  Name = ZINC000001703511 PubChem-92161731
REMARK  9 active torsions:
REMARK  status: ('A' for Active; 'I' for Inactive)
REMARK    1  A    between atoms: N_17  and  C_20
REMARK    2  A    between atoms: C_20  and  C_21
REMARK    3  A    between atoms: C_21  and  O_22
REMARK    4  A    between atoms: C_21  and  C_24
REMARK    5  A    between atoms: C_24  and  O_25
REMARK    6  A    between atoms: C_24  and  C_27
REMARK    7  A    between atoms: C_27  and  O_28
REMARK    8  A    between atoms: C_27  and  C_30
REMARK    9  A    between atoms: C_30  and  O_31
REMARK                            x       y       z     vdW  Elec       q    Type
REMARK                         _______ _______ _______ _____ _____    ______ ____
ROOT
ATOM      1  C   UNL     1     -47.126  -3.346 -23.507  0.00  0.00    +0.000 C 
ATOM      2  C   UNL     1     -47.111  -3.892 -24.895  0.00  0.00    +0.000 A 
ATOM      3  C   UNL     1     -47.399  -3.081 -26.006  0.00  0.00    +0.000 A 
ATOM      4  C   UNL     1     -47.375  -3.630 -27.291  0.00  0.00    +0.000 A 
ATOM      5  C   UNL     1     -47.068  -4.987 -27.496  0.00  0.00    +0.000 A 
ATOM      6  C   UNL     1     -46.777  -5.793 -26.364  0.00  0.00    +0.000 A 
ATOM      7  C   UNL     1     -46.802  -5.242 -25.082  0.00  0.00    +0.000 A 
ATOM      8  C   UNL     1     -46.464  -7.141 -26.517  0.00  0.00    +0.000 A 
ATOM      9  C   UNL     1     -46.434  -7.699 -27.789  0.00  0.00    +0.000 A 
ATOM     10  C   UNL     1     -46.128  -9.040 -28.030  0.00  0.00    +0.000 A 
ATOM     11  O   UNL     1     -45.859  -9.822 -27.079  0.00  0.00    +0.000 OA
ATOM     12  N   UNL     1     -46.118  -9.506 -29.306  0.00  0.00    +0.000 N 
ATOM     13  C   UNL     1     -46.399  -8.706 -30.372  0.00  0.00    +0.000 A 
ATOM     14  O   UNL     1     -46.376  -9.187 -31.535  0.00  0.00    +0.000 OA
ATOM     15  N   UNL     1     -46.705  -7.394 -30.193  0.00  0.00    +0.000 NA
ATOM     16  C   UNL     1     -46.740  -6.842 -28.951  0.00  0.00    +0.000 A 
ATOM     17  N   UNL     1     -47.048  -5.523 -28.764  0.00  0.00    +0.000 N 
ATOM     18  C   UNL     1     -47.733  -1.636 -25.852  0.00  0.00    +0.000 C 
ATOM     19  H   UNL     1     -45.900 -10.453 -29.465  0.00  0.00    +0.000 HD
ENDROOT
BRANCH  17  20
ATOM     20  C   UNL     1     -47.366  -4.692 -29.929  0.00  0.00    +0.000 C 
BRANCH  20  21
ATOM     21  C   UNL     1     -46.103  -4.045 -30.489  0.00  0.00    +0.000 C 
BRANCH  21  22
ATOM     22  O   UNL     1     -46.312  -2.672 -30.630  0.00  0.00    +0.000 OA
ATOM     23  H   UNL     1     -46.520  -2.287 -29.765  0.00  0.00    +0.000 HD
ENDBRANCH  21  22
BRANCH  21  24
ATOM     24  C   UNL     1     -45.733  -4.672 -31.838  0.00  0.00    +0.000 C 
BRANCH  24  25
ATOM     25  O   UNL     1     -44.919  -3.799 -32.564  0.00  0.00    +0.000 OA
ATOM     26  H   UNL     1     -44.022  -3.812 -32.195  0.00  0.00    +0.000 HD
ENDBRANCH  24  25
BRANCH  24  27
ATOM     27  C   UNL     1     -46.951  -5.032 -32.693  0.00  0.00    +0.000 C 
BRANCH  27  28
ATOM     28  O   UNL     1     -46.944  -6.388 -33.034  0.00  0.00    +0.000 OA
ATOM     29  H   UNL     1     -46.660  -6.488 -33.956  0.00  0.00    +0.000 HD
ENDBRANCH  27  28
BRANCH  27  30
ATOM     30  C   UNL     1     -47.032  -4.169 -33.941  0.00  0.00    +0.000 C 
BRANCH  30  31
ATOM     31  O   UNL     1     -47.417  -2.873 -33.596  0.00  0.00    +0.000 OA
ATOM     32  H   UNL     1     -47.417  -2.781 -32.630  0.00  0.00    +0.000 HD
ENDBRANCH  30  31
ENDBRANCH  27  30
ENDBRANCH  24  27
ENDBRANCH  21  24
ENDBRANCH  20  21
ENDBRANCH  17  20
TORSDOF 9
ENDMDL
MODEL 2
REMARK VINA RESULT:      -6.0     11.484     15.308
REMARK  Name = ZINC000001703511 PubChem-92161731
REMARK  9 active torsions:
REMARK  status: ('A' for Active; 'I' for Inactive)
REMARK    1  A    between atoms: N_17  and  C_20
REMARK    2  A    between atoms: C_20  and  C_21
REMARK    3  A    between atoms: C_21  and  O_22
REMARK    4  A    between atoms: C_21  and  C_24
REMARK    5  A    between atoms: C_24  and  O_25
REMARK    6  A    between atoms: C_24  and  C_27
REMARK    7  A    between atoms: C_27  and  O_28
REMARK    8  A    between atoms: C_27  and  C_30
REMARK    9  A    between atoms: C_30  and  O_31
REMARK                            x       y       z     vdW  Elec       q    Type
REMARK                         _______ _______ _______ _____ _____    ______ ____
ROOT
ATOM      1  C   UNL     1     -46.907 -12.533 -19.496  0.00  0.00    +0.000 C 
ATOM      2  C   UNL     1     -46.542 -13.876 -20.034  0.00  0.00    +0.000 A 
ATOM      3  C   UNL     1     -46.393 -14.989 -19.189  0.00  0.00    +0.000 A 
ATOM      4  C   UNL     1     -46.050 -16.230 -19.731  0.00  0.00    +0.000 A 
ATOM      5  C   UNL     1     -45.848 -16.389 -21.113  0.00  0.00    +0.000 A 
ATOM      6  C   UNL     1     -46.004 -15.255 -21.955  0.00  0.00    +0.000 A 
ATOM      7  C   UNL     1     -46.347 -14.017 -21.410  0.00  0.00    +0.000 A 
ATOM      8  C   UNL     1     -45.817 -15.363 -23.330  0.00  0.00    +0.000 A 
ATOM      9  C   UNL     1     -45.478 -16.592 -23.882  0.00  0.00    +0.000 A 
ATOM     10  C   UNL     1     -45.276 -16.787 -25.250  0.00  0.00    +0.000 A 
ATOM     11  O   UNL     1     -45.394 -15.832 -26.063  0.00  0.00    +0.000 OA
ATOM     12  N   UNL     1     -44.949 -18.024 -25.709  0.00  0.00    +0.000 N 
ATOM     13  C   UNL     1     -44.810 -19.093 -24.877  0.00  0.00    +0.000 A 
ATOM     14  O   UNL     1     -44.506 -20.217 -25.353  0.00  0.00    +0.000 OA
ATOM     15  N   UNL     1     -44.994 -18.957 -23.537  0.00  0.00    +0.000 NA
ATOM     16  C   UNL     1     -45.322 -17.757 -22.989  0.00  0.00    +0.000 A 
ATOM     17  N   UNL     1     -45.508 -17.614 -21.642  0.00  0.00    +0.000 N 
ATOM     18  C   UNL     1     -46.593 -14.883 -17.716  0.00  0.00    +0.000 C 
ATOM     19  H   UNL     1     -44.809 -18.151 -26.675  0.00  0.00    +0.000 HD
ENDROOT
BRANCH  17  20
ATOM     20  C   UNL     1     -45.331 -18.778 -20.769  0.00  0.00    +0.000 C 
BRANCH  20  21
ATOM     21  C   UNL     1     -43.857 -18.980 -20.432  0.00  0.00    +0.000 C 
BRANCH  21  22
ATOM     22  O   UNL     1     -43.380 -20.102 -21.111  0.00  0.00    +0.000 OA
ATOM     23  H   UNL     1     -43.089 -19.843 -21.999  0.00  0.00    +0.000 HD
ENDBRANCH  21  22
BRANCH  21  24
ATOM     24  C   UNL     1     -43.672 -19.150 -18.919  0.00  0.00    +0.000 C 
BRANCH  24  25
ATOM     25  O   UNL     1     -43.170 -17.970 -18.364  0.00  0.00    +0.000 OA
ATOM     26  H   UNL     1     -42.463 -18.183 -17.735  0.00  0.00    +0.000 HD
ENDBRANCH  24  25
BRANCH  24  27
ATOM     27  C   UNL     1     -42.737 -20.304 -18.549  0.00  0.00    +0.000 C 
BRANCH  27  28
ATOM     28  O   UNL     1     -43.462 -21.445 -18.194  0.00  0.00    +0.000 OA
ATOM     29  H   UNL     1     -43.686 -21.406 -17.250  0.00  0.00    +0.000 HD
ENDBRANCH  27  28
BRANCH  27  30
ATOM     30  C   UNL     1     -41.780 -19.912 -17.436  0.00  0.00    +0.000 C 
BRANCH  30  31
ATOM     31  O   UNL     1     -42.483 -19.748 -16.242  0.00  0.00    +0.000 OA
ATOM     32  H   UNL     1     -43.031 -18.950 -16.296  0.00  0.00    +0.000 HD
ENDBRANCH  30  31
ENDBRANCH  27  30
ENDBRANCH  24  27
ENDBRANCH  21  24
ENDBRANCH  20  21
ENDBRANCH  17  20
TORSDOF 9
ENDMDL
MODEL 3
REMARK VINA RESULT:      -5.8      1.744      2.666
REMARK  Name = ZINC000001703511 PubChem-92161731
REMARK  9 active torsions:
REMARK  status: ('A' for Active; 'I' for Inactive)
REMARK    1  A    between atoms: N_17  and  C_20
REMARK    2  A    between atoms: C_20  and  C_21
REMARK    3  A    between atoms: C_21  and  O_22
REMARK    4  A    between atoms: C_21  and  C_24
REMARK    5  A    between atoms: C_24  and  O_25
REMARK    6  A    between atoms: C_24  and  C_27
REMARK    7  A    between atoms: C_27  and  O_28
REMARK    8  A    between atoms: C_27  and  C_30
REMARK    9  A    between atoms: C_30  and  O_31
REMARK                            x       y       z     vdW  Elec       q    Type
REMARK                         _______ _______ _______ _____ _____    ______ ____
ROOT
ATOM      1  C   UNL     1     -46.815  -5.496 -24.782  0.00  0.00    +0.000 C 
ATOM      2  C   UNL     1     -46.820  -5.370 -26.268  0.00  0.00    +0.000 A 
ATOM      3  C   UNL     1     -47.088  -4.144 -26.900  0.00  0.00    +0.000 A 
ATOM      4  C   UNL     1     -47.084  -4.066 -28.295  0.00  0.00    +0.000 A 
ATOM      5  C   UNL     1     -46.815  -5.198 -29.085  0.00  0.00    +0.000 A 
ATOM      6  C   UNL     1     -46.543  -6.430 -28.433  0.00  0.00    +0.000 A 
ATOM      7  C   UNL     1     -46.549  -6.504 -27.038  0.00  0.00    +0.000 A 
ATOM      8  C   UNL     1     -46.268  -7.577 -29.172  0.00  0.00    +0.000 A 
ATOM      9  C   UNL     1     -46.258  -7.513 -30.560  0.00  0.00    +0.000 A 
ATOM     10  C   UNL     1     -45.989  -8.615 -31.375  0.00  0.00    +0.000 A 
ATOM     11  O   UNL     1     -45.740  -9.744 -30.874  0.00  0.00    +0.000 OA
ATOM     12  N   UNL     1     -45.996  -8.466 -32.725  0.00  0.00    +0.000 N 
ATOM     13  C   UNL     1     -46.258  -7.270 -33.322  0.00  0.00    +0.000 A 
ATOM     14  O   UNL     1     -46.252  -7.186 -34.577  0.00  0.00    +0.000 OA
ATOM     15  N   UNL     1     -46.527  -6.167 -32.575  0.00  0.00    +0.000 NA
ATOM     16  C   UNL     1     -46.543  -6.223 -31.216  0.00  0.00    +0.000 A 
ATOM     17  N   UNL     1     -46.814  -5.116 -30.459  0.00  0.00    +0.000 N 
ATOM     18  C   UNL     1     -47.382  -2.910 -26.117  0.00  0.00    +0.000 C 
ATOM     19  H   UNL     1     -45.806  -9.249 -33.291  0.00  0.00    +0.000 HD
ENDROOT
BRANCH  17  20
ATOM     20  C   UNL     1     -47.111  -3.847 -31.130  0.00  0.00    +0.000 C 
BRANCH  20  21
ATOM     21  C   UNL     1     -45.827  -3.075 -31.414  0.00  0.00    +0.000 C 
BRANCH  21  22
ATOM     22  O   UNL     1     -45.834  -1.886 -30.681  0.00  0.00    +0.000 OA
ATOM     23  H   UNL     1     -46.637  -1.384 -30.887  0.00  0.00    +0.000 HD
ENDBRANCH  21  22
BRANCH  21  24
ATOM     24  C   UNL     1     -45.700  -2.779 -32.913  0.00  0.00    +0.000 C 
BRANCH  24  25
ATOM     25  O   UNL     1     -46.811  -3.282 -33.595  0.00  0.00    +0.000 OA
ATOM     26  H   UNL     1     -46.560  -3.501 -34.506  0.00  0.00    +0.000 HD
ENDBRANCH  24  25
BRANCH  24  27
ATOM     27  C   UNL     1     -44.432  -3.364 -33.540  0.00  0.00    +0.000 C 
BRANCH  27  28
ATOM     28  O   UNL     1     -43.963  -4.455 -32.802  0.00  0.00    +0.000 OA
ATOM     29  H   UNL     1     -44.379  -5.269 -33.126  0.00  0.00    +0.000 HD
ENDBRANCH  27  28
BRANCH  27  30
ATOM     30  C   UNL     1     -43.345  -2.312 -33.687  0.00  0.00    +0.000 C 
BRANCH  30  31
ATOM     31  O   UNL     1     -43.914  -1.039 -33.681  0.00  0.00    +0.000 OA
ATOM     32  H   UNL     1     -44.473  -0.930 -34.467  0.00  0.00    +0.000 HD
ENDBRANCH  30  31
ENDBRANCH  27  30
ENDBRANCH  24  27
ENDBRANCH  21  24
ENDBRANCH  20  21
ENDBRANCH  17  20
TORSDOF 9
ENDMDL
