MODEL 1
REMARK VINA RESULT:      -6.3      0.000      0.000
REMARK  Name = ZINC000181041974 MolPort-044-576-750 PubChem-132290894
REMARK  3 active torsions:
REMARK  status: ('A' for Active; 'I' for Inactive)
REMARK    1  A    between atoms: C_9  and  C_10
REMARK    2  A    between atoms: C_10  and  O_23
REMARK    3  A    between atoms: C_11  and  O_23
REMARK                            x       y       z     vdW  Elec       q    Type
REMARK                         _______ _______ _______ _____ _____    ______ ____
ROOT
ATOM      1  C   UNL     1     -47.515  -1.804 -25.709  0.00  0.00    +0.000 C 
ATOM      2  C   UNL     1     -47.255  -3.269 -25.617  0.00  0.00    +0.000 A 
ATOM      3  C   UNL     1     -47.092  -4.051 -26.769  0.00  0.00    +0.000 A 
ATOM      4  C   UNL     1     -46.839  -5.428 -26.638  0.00  0.00    +0.000 A 
ATOM      5  C   UNL     1     -46.936  -5.238 -24.267  0.00  0.00    +0.000 A 
ATOM      6  C   UNL     1     -47.179  -3.867 -24.360  0.00  0.00    +0.000 A 
ATOM      7  C   UNL     1     -47.190  -5.776 -29.108  0.00  0.00    +0.000 C 
ATOM      8  C   UNL     1     -47.114  -4.286 -29.238  0.00  0.00    +0.000 C 
ATOM      9  C   UNL     1     -46.025  -7.536 -27.764  0.00  0.00    +0.000 C 
ATOM     10  N   UNL     1     -46.772  -5.980 -25.394  0.00  0.00    +0.000 NA
ATOM     11  N   UNL     1     -46.650  -6.237 -27.822  0.00  0.00    +0.000 N 
ATOM     12  N   UNL     1     -47.156  -3.464 -28.071  0.00  0.00    +0.000 NA
ATOM     13  O   UNL     1     -47.078  -3.756 -30.378  0.00  0.00    +0.000 OA
ATOM     14  O   UNL     1     -45.412  -7.909 -26.728  0.00  0.00    +0.000 OA
ENDROOT
BRANCH   9  15
ATOM     15  C   UNL     1     -46.031  -8.445 -28.947  0.00  0.00    +0.000 C 
BRANCH  15  16
ATOM     16  O   UNL     1     -46.893  -9.547 -28.694  0.00  0.00    +0.000 OA
BRANCH  16  17
ATOM     17  C   UNL     1     -46.519 -10.874 -28.939  0.00  0.00    +0.000 A 
ATOM     18  C   UNL     1     -46.296 -11.333 -30.248  0.00  0.00    +0.000 A 
ATOM     19  C   UNL     1     -45.924 -12.658 -30.479  0.00  0.00    +0.000 A 
ATOM     20  C   UNL     1     -45.772 -13.537 -29.407  0.00  0.00    +0.000 A 
ATOM     21  C   UNL     1     -45.989 -13.098 -28.098  0.00  0.00    +0.000 A 
ATOM     22  C   UNL     1     -46.366 -11.762 -27.859  0.00  0.00    +0.000 A 
ATOM     23  C   UNL     1     -46.600 -11.280 -26.465  0.00  0.00    +0.000 C 
ATOM     24 CL   UNL     1     -45.783 -14.246 -26.784  0.00  0.00    +0.000 Cl
ENDBRANCH  16  17
ENDBRANCH  15  16
ENDBRANCH   9  15
TORSDOF 3
ENDMDL
MODEL 2
REMARK VINA RESULT:      -6.2      5.812     10.139
REMARK  Name = ZINC000181041974 MolPort-044-576-750 PubChem-132290894
REMARK  3 active torsions:
REMARK  status: ('A' for Active; 'I' for Inactive)
REMARK    1  A    between atoms: C_9  and  C_10
REMARK    2  A    between atoms: C_10  and  O_23
REMARK    3  A    between atoms: C_11  and  O_23
REMARK                            x       y       z     vdW  Elec       q    Type
REMARK                         _______ _______ _______ _____ _____    ______ ____
ROOT
ATOM      1  C   UNL     1     -43.236 -19.969 -27.130  0.00  0.00    +0.000 C 
ATOM      2  C   UNL     1     -44.112 -19.090 -26.306  0.00  0.00    +0.000 A 
ATOM      3  C   UNL     1     -44.027 -17.693 -26.392  0.00  0.00    +0.000 A 
ATOM      4  C   UNL     1     -44.879 -16.900 -25.603  0.00  0.00    +0.000 A 
ATOM      5  C   UNL     1     -45.852 -18.855 -24.656  0.00  0.00    +0.000 A 
ATOM      6  C   UNL     1     -45.028 -19.673 -25.431  0.00  0.00    +0.000 A 
ATOM      7  C   UNL     1     -43.586 -14.825 -26.208  0.00  0.00    +0.000 C 
ATOM      8  C   UNL     1     -42.937 -15.649 -27.276  0.00  0.00    +0.000 C 
ATOM      9  C   UNL     1     -45.879 -14.612 -25.229  0.00  0.00    +0.000 C 
ATOM     10  N   UNL     1     -45.762 -17.503 -24.758  0.00  0.00    +0.000 NA
ATOM     11  N   UNL     1     -44.810 -15.459 -25.702  0.00  0.00    +0.000 N 
ATOM     12  N   UNL     1     -43.105 -17.067 -27.287  0.00  0.00    +0.000 NA
ATOM     13  O   UNL     1     -42.193 -15.099 -28.128  0.00  0.00    +0.000 OA
ATOM     14  O   UNL     1     -47.003 -15.099 -24.934  0.00  0.00    +0.000 OA
ENDROOT
BRANCH   9  15
ATOM     15  C   UNL     1     -45.704 -13.133 -25.140  0.00  0.00    +0.000 C 
BRANCH  15  16
ATOM     16  O   UNL     1     -46.811 -12.486 -25.756  0.00  0.00    +0.000 OA
BRANCH  16  17
ATOM     17  C   UNL     1     -46.786 -12.037 -27.081  0.00  0.00    +0.000 A 
ATOM     18  C   UNL     1     -46.832 -12.943 -28.153  0.00  0.00    +0.000 A 
ATOM     19  C   UNL     1     -46.807 -12.483 -29.471  0.00  0.00    +0.000 A 
ATOM     20  C   UNL     1     -46.734 -11.114 -29.729  0.00  0.00    +0.000 A 
ATOM     21  C   UNL     1     -46.686 -10.198 -28.675  0.00  0.00    +0.000 A 
ATOM     22  C   UNL     1     -46.711 -10.657 -27.344  0.00  0.00    +0.000 A 
ATOM     23  C   UNL     1     -46.663  -9.688 -26.209  0.00  0.00    +0.000 C 
ATOM     24 CL   UNL     1     -46.595  -8.485 -29.058  0.00  0.00    +0.000 Cl
ENDBRANCH  16  17
ENDBRANCH  15  16
ENDBRANCH   9  15
TORSDOF 3
ENDMDL
MODEL 3
REMARK VINA RESULT:      -5.9      6.272     10.132
REMARK  Name = ZINC000181041974 MolPort-044-576-750 PubChem-132290894
REMARK  3 active torsions:
REMARK  status: ('A' for Active; 'I' for Inactive)
REMARK    1  A    between atoms: C_9  and  C_10
REMARK    2  A    between atoms: C_10  and  O_23
REMARK    3  A    between atoms: C_11  and  O_23
REMARK                            x       y       z     vdW  Elec       q    Type
REMARK                         _______ _______ _______ _____ _____    ______ ____
ROOT
ATOM      1  C   UNL     1     -45.293 -19.086 -21.092  0.00  0.00    +0.000 C 
ATOM      2  C   UNL     1     -45.386 -17.674 -21.562  0.00  0.00    +0.000 A 
ATOM      3  C   UNL     1     -45.373 -17.362 -22.929  0.00  0.00    +0.000 A 
ATOM      4  C   UNL     1     -45.473 -16.017 -23.330  0.00  0.00    +0.000 A 
ATOM      5  C   UNL     1     -45.571 -15.327 -21.054  0.00  0.00    +0.000 A 
ATOM      6  C   UNL     1     -45.483 -16.650 -20.620  0.00  0.00    +0.000 A 
ATOM      7  C   UNL     1     -44.905 -16.635 -25.705  0.00  0.00    +0.000 C 
ATOM      8  C   UNL     1     -45.144 -18.056 -25.299  0.00  0.00    +0.000 C 
ATOM      9  C   UNL     1     -45.951 -14.414 -25.220  0.00  0.00    +0.000 C 
ATOM     10  N   UNL     1     -45.565 -15.041 -22.383  0.00  0.00    +0.000 NA
ATOM     11  N   UNL     1     -45.479 -15.689 -24.738  0.00  0.00    +0.000 N 
ATOM     12  N   UNL     1     -45.284 -18.390 -23.917  0.00  0.00    +0.000 NA
ATOM     13  O   UNL     1     -45.159 -18.963 -26.168  0.00  0.00    +0.000 OA
ATOM     14  O   UNL     1     -46.590 -13.636 -24.462  0.00  0.00    +0.000 OA
ENDROOT
BRANCH   9  15
ATOM     15  C   UNL     1     -45.753 -14.009 -26.643  0.00  0.00    +0.000 C 
BRANCH  15  16
ATOM     16  O   UNL     1     -46.904 -13.312 -27.102  0.00  0.00    +0.000 OA
BRANCH  16  17
ATOM     17  C   UNL     1     -46.856 -11.997 -27.577  0.00  0.00    +0.000 A 
ATOM     18  C   UNL     1     -46.965 -10.906 -26.699  0.00  0.00    +0.000 A 
ATOM     19  C   UNL     1     -46.914  -9.598 -27.184  0.00  0.00    +0.000 A 
ATOM     20  C   UNL     1     -46.756  -9.368 -28.551  0.00  0.00    +0.000 A 
ATOM     21  C   UNL     1     -46.646 -10.441 -29.439  0.00  0.00    +0.000 A 
ATOM     22  C   UNL     1     -46.696 -11.762 -28.955  0.00  0.00    +0.000 A 
ATOM     23  C   UNL     1     -46.577 -12.917 -29.894  0.00  0.00    +0.000 C 
ATOM     24 CL   UNL     1     -46.447 -10.094 -31.150  0.00  0.00    +0.000 Cl
ENDBRANCH  16  17
ENDBRANCH  15  16
ENDBRANCH   9  15
TORSDOF 3
ENDMDL
