MODEL 1
REMARK VINA RESULT:      -6.7      0.000      0.000
REMARK  Name = ZINC000031807721
REMARK  2 active torsions:
REMARK  status: ('A' for Active; 'I' for Inactive)
REMARK    1  A    between atoms: C_7  and  C_24
REMARK    2  A    between atoms: C_27  and  O_28
REMARK                            x       y       z     vdW  Elec       q    Type
REMARK                         _______ _______ _______ _____ _____    ______ ____
ROOT
ATOM      1  C   UNL     1     -42.923  -5.703 -35.001  0.00  0.00    +0.000 C 
ATOM      2  C   UNL     1     -43.733  -6.124 -33.824  0.00  0.00    +0.000 A 
ATOM      3  N   UNL     1     -43.577  -7.306 -33.202  0.00  0.00    +0.000 NA
ATOM      4  N   UNL     1     -44.444  -7.350 -32.203  0.00  0.00    +0.000 N 
ATOM      5  C   UNL     1     -45.140  -6.191 -32.149  0.00  0.00    +0.000 A 
ATOM      6  C   UNL     1     -44.718  -5.377 -33.201  0.00  0.00    +0.000 A 
ATOM      7  C   UNL     1     -45.107  -3.981 -33.600  0.00  0.00    +0.000 C 
ATOM      8  S   UNL     1     -46.837  -3.538 -33.253  0.00  0.00    +0.000 S 
ATOM      9  C   UNL     1     -46.542  -3.420 -31.472  0.00  0.00    +0.000 C 
ATOM     10  C   UNL     1     -46.835  -4.722 -30.823  0.00  0.00    +0.000 C 
ATOM     11  O   UNL     1     -47.738  -4.763 -29.949  0.00  0.00    +0.000 OA
ATOM     12  N   UNL     1     -46.107  -5.917 -31.122  0.00  0.00    +0.000 N 
ATOM     13  H   UNL     1     -46.301  -6.676 -30.526  0.00  0.00    +0.000 HD
ATOM     14  C   UNL     1     -44.529  -8.465 -31.304  0.00  0.00    +0.000 A 
ATOM     15  N   UNL     1     -43.392  -9.099 -30.888  0.00  0.00    +0.000 NA
ATOM     16  C   UNL     1     -43.440 -10.186 -30.054  0.00  0.00    +0.000 A 
ATOM     17  N   UNL     1     -44.642 -10.676 -29.622  0.00  0.00    +0.000 NA
ATOM     18  C   UNL     1     -45.770 -10.058 -30.044  0.00  0.00    +0.000 A 
ATOM     19  N   UNL     1     -47.029 -10.425 -29.776  0.00  0.00    +0.000 N 
ATOM     20  C   UNL     1     -47.756  -9.520 -30.486  0.00  0.00    +0.000 A 
ATOM     21  N   UNL     1     -46.999  -8.623 -31.176  0.00  0.00    +0.000 NA
ATOM     22  C   UNL     1     -45.748  -8.986 -30.864  0.00  0.00    +0.000 A 
ATOM     23  H   UNL     1     -47.349 -11.164 -29.210  0.00  0.00    +0.000 HD
ENDROOT
BRANCH   7  24
ATOM     24  C   UNL     1     -44.118  -2.917 -33.208  0.00  0.00    +0.000 A 
ATOM     25  C   UNL     1     -44.368  -1.590 -33.573  0.00  0.00    +0.000 A 
ATOM     26  C   UNL     1     -43.471  -0.580 -33.213  0.00  0.00    +0.000 A 
ATOM     27  C   UNL     1     -42.321  -0.892 -32.484  0.00  0.00    +0.000 A 
ATOM     28  C   UNL     1     -42.066  -2.214 -32.112  0.00  0.00    +0.000 A 
ATOM     29  C   UNL     1     -42.961  -3.225 -32.472  0.00  0.00    +0.000 A 
BRANCH  27  30
ATOM     30  O   UNL     1     -41.431   0.112 -32.128  0.00  0.00    +0.000 OA
ATOM     31  H   UNL     1     -40.940   0.043 -31.333  0.00  0.00    +0.000 HD
ENDBRANCH  27  30
ENDBRANCH   7  24
TORSDOF 2
ENDMDL
MODEL 2
REMARK VINA RESULT:      -6.7      2.630      3.148
REMARK  Name = ZINC000031807721
REMARK  2 active torsions:
REMARK  status: ('A' for Active; 'I' for Inactive)
REMARK    1  A    between atoms: C_7  and  C_24
REMARK    2  A    between atoms: C_27  and  O_28
REMARK                            x       y       z     vdW  Elec       q    Type
REMARK                         _______ _______ _______ _____ _____    ______ ____
ROOT
ATOM      1  C   UNL     1     -47.420  -4.488 -34.440  0.00  0.00    +0.000 C 
ATOM      2  C   UNL     1     -46.672  -5.634 -33.852  0.00  0.00    +0.000 A 
ATOM      3  N   UNL     1     -46.572  -6.836 -34.447  0.00  0.00    +0.000 NA
ATOM      4  N   UNL     1     -45.838  -7.610 -33.663  0.00  0.00    +0.000 N 
ATOM      5  C   UNL     1     -45.432  -6.910 -32.578  0.00  0.00    +0.000 A 
ATOM      6  C   UNL     1     -45.972  -5.627 -32.657  0.00  0.00    +0.000 A 
ATOM      7  C   UNL     1     -45.824  -4.425 -31.766  0.00  0.00    +0.000 C 
ATOM      8  S   UNL     1     -45.622  -4.803 -29.998  0.00  0.00    +0.000 S 
ATOM      9  C   UNL     1     -43.927  -5.391 -30.227  0.00  0.00    +0.000 C 
ATOM     10  C   UNL     1     -43.926  -6.858 -30.453  0.00  0.00    +0.000 C 
ATOM     11  O   UNL     1     -43.310  -7.587 -29.635  0.00  0.00    +0.000 OA
ATOM     12  N   UNL     1     -44.561  -7.468 -31.581  0.00  0.00    +0.000 N 
ATOM     13  H   UNL     1     -44.370  -8.427 -31.691  0.00  0.00    +0.000 HD
ATOM     14  C   UNL     1     -45.503  -8.961 -34.009  0.00  0.00    +0.000 A 
ATOM     15  N   UNL     1     -45.199  -9.282 -35.302  0.00  0.00    +0.000 NA
ATOM     16  C   UNL     1     -44.903 -10.569 -35.672  0.00  0.00    +0.000 A 
ATOM     17  N   UNL     1     -44.918 -11.577 -34.748  0.00  0.00    +0.000 NA
ATOM     18  C   UNL     1     -45.232 -11.264 -33.469  0.00  0.00    +0.000 A 
ATOM     19  N   UNL     1     -45.353 -12.117 -32.445  0.00  0.00    +0.000 N 
ATOM     20  C   UNL     1     -45.741 -11.301 -31.427  0.00  0.00    +0.000 A 
ATOM     21  N   UNL     1     -45.866  -9.993 -31.786  0.00  0.00    +0.000 NA
ATOM     22  C   UNL     1     -45.525 -10.005 -33.081  0.00  0.00    +0.000 A 
ATOM     23  H   UNL     1     -45.201 -13.089 -32.431  0.00  0.00    +0.000 HD
ENDROOT
BRANCH   7  24
ATOM     24  C   UNL     1     -44.872  -3.378 -32.276  0.00  0.00    +0.000 A 
ATOM     25  C   UNL     1     -44.947  -2.081 -31.758  0.00  0.00    +0.000 A 
ATOM     26  C   UNL     1     -44.068  -1.091 -32.206  0.00  0.00    +0.000 A 
ATOM     27  C   UNL     1     -43.107  -1.394 -33.174  0.00  0.00    +0.000 A 
ATOM     28  C   UNL     1     -43.023  -2.689 -33.693  0.00  0.00    +0.000 A 
ATOM     29  C   UNL     1     -43.901  -3.679 -33.247  0.00  0.00    +0.000 A 
BRANCH  27  30
ATOM     30  O   UNL     1     -42.235  -0.410 -33.618  0.00  0.00    +0.000 OA
ATOM     31  H   UNL     1     -42.077  -0.303 -34.535  0.00  0.00    +0.000 HD
ENDBRANCH  27  30
ENDBRANCH   7  24
TORSDOF 2
ENDMDL
MODEL 3
REMARK VINA RESULT:      -6.7      3.252      7.155
REMARK  Name = ZINC000031807721
REMARK  2 active torsions:
REMARK  status: ('A' for Active; 'I' for Inactive)
REMARK    1  A    between atoms: C_7  and  C_24
REMARK    2  A    between atoms: C_27  and  O_28
REMARK                            x       y       z     vdW  Elec       q    Type
REMARK                         _______ _______ _______ _____ _____    ______ ____
ROOT
ATOM      1  C   UNL     1     -42.591  -6.757 -27.462  0.00  0.00    +0.000 C 
ATOM      2  C   UNL     1     -43.071  -6.116 -28.718  0.00  0.00    +0.000 A 
ATOM      3  N   UNL     1     -42.258  -5.770 -29.732  0.00  0.00    +0.000 NA
ATOM      4  N   UNL     1     -43.009  -5.238 -30.684  0.00  0.00    +0.000 N 
ATOM      5  C   UNL     1     -44.309  -5.265 -30.310  0.00  0.00    +0.000 A 
ATOM      6  C   UNL     1     -44.386  -5.811 -29.029  0.00  0.00    +0.000 A 
ATOM      7  C   UNL     1     -45.562  -6.120 -28.145  0.00  0.00    +0.000 C 
ATOM      8  S   UNL     1     -46.970  -4.982 -28.316  0.00  0.00    +0.000 S 
ATOM      9  C   UNL     1     -47.439  -5.664 -29.925  0.00  0.00    +0.000 C 
ATOM     10  C   UNL     1     -46.790  -4.890 -31.012  0.00  0.00    +0.000 C 
ATOM     11  O   UNL     1     -47.524  -4.302 -31.846  0.00  0.00    +0.000 OA
ATOM     12  N   UNL     1     -45.370  -4.819 -31.171  0.00  0.00    +0.000 N 
ATOM     13  H   UNL     1     -45.070  -4.393 -32.006  0.00  0.00    +0.000 HD
ATOM     14  C   UNL     1     -42.466  -4.785 -31.931  0.00  0.00    +0.000 A 
ATOM     15  N   UNL     1     -41.470  -5.493 -32.543  0.00  0.00    +0.000 NA
ATOM     16  C   UNL     1     -40.908  -5.071 -33.721  0.00  0.00    +0.000 A 
ATOM     17  N   UNL     1     -41.326  -3.912 -34.312  0.00  0.00    +0.000 NA
ATOM     18  C   UNL     1     -42.304  -3.201 -33.701  0.00  0.00    +0.000 A 
ATOM     19  N   UNL     1     -42.799  -2.022 -34.096  0.00  0.00    +0.000 N 
ATOM     20  C   UNL     1     -43.688  -1.732 -33.107  0.00  0.00    +0.000 A 
ATOM     21  N   UNL     1     -43.753  -2.677 -32.129  0.00  0.00    +0.000 NA
ATOM     22  C   UNL     1     -42.872  -3.597 -32.543  0.00  0.00    +0.000 A 
ATOM     23  H   UNL     1     -42.576  -1.497 -34.898  0.00  0.00    +0.000 HD
ENDROOT
BRANCH   7  24
ATOM     24  C   UNL     1     -45.955  -7.572 -28.107  0.00  0.00    +0.000 A 
ATOM     25  C   UNL     1     -46.643  -8.061 -26.992  0.00  0.00    +0.000 A 
ATOM     26  C   UNL     1     -47.031  -9.403 -26.935  0.00  0.00    +0.000 A 
ATOM     27  C   UNL     1     -46.734 -10.262 -27.995  0.00  0.00    +0.000 A 
ATOM     28  C   UNL     1     -46.051  -9.781 -29.115  0.00  0.00    +0.000 A 
ATOM     29  C   UNL     1     -45.663  -8.440 -29.173  0.00  0.00    +0.000 A 
BRANCH  27  30
ATOM     30  O   UNL     1     -47.119 -11.595 -27.938  0.00  0.00    +0.000 OA
ATOM     31  H   UNL     1     -46.492 -12.254 -27.713  0.00  0.00    +0.000 HD
ENDBRANCH  27  30
ENDBRANCH   7  24
TORSDOF 2
ENDMDL
