MODEL 1
REMARK VINA RESULT:      -6.1      0.000      0.000
REMARK  Name = ZINC000003831423 ZINC03831423 PubChem-7048776
REMARK  9 active torsions:
REMARK  status: ('A' for Active; 'I' for Inactive)
REMARK    1  A    between atoms: N_9  and  C_20
REMARK    2  A    between atoms: C_20  and  C_21
REMARK    3  A    between atoms: C_21  and  O_22
REMARK    4  A    between atoms: C_21  and  C_24
REMARK    5  A    between atoms: C_24  and  O_25
REMARK    6  A    between atoms: C_24  and  C_27
REMARK    7  A    between atoms: C_27  and  O_28
REMARK    8  A    between atoms: C_27  and  C_30
REMARK    9  A    between atoms: C_30  and  O_31
REMARK                            x       y       z     vdW  Elec       q    Type
REMARK                         _______ _______ _______ _____ _____    ______ ____
ROOT
ATOM      1  C   UNL     1     -47.151  -3.410 -23.483  0.00  0.00    +0.000 C 
ATOM      2  C   UNL     1     -47.120  -3.919 -24.884  0.00  0.00    +0.000 A 
ATOM      3  C   UNL     1     -46.824  -5.266 -25.102  0.00  0.00    +0.000 A 
ATOM      4  C   UNL     1     -46.785  -5.786 -26.398  0.00  0.00    +0.000 A 
ATOM      5  C   UNL     1     -47.047  -4.943 -27.512  0.00  0.00    +0.000 A 
ATOM      6  C   UNL     1     -47.341  -3.589 -27.277  0.00  0.00    +0.000 A 
ATOM      7  C   UNL     1     -47.379  -3.075 -25.979  0.00  0.00    +0.000 A 
ATOM      8  C   UNL     1     -47.698  -1.630 -25.791  0.00  0.00    +0.000 C 
ATOM      9  N   UNL     1     -47.012  -5.451 -28.789  0.00  0.00    +0.000 N 
ATOM     10  C   UNL     1     -46.718  -6.769 -28.987  0.00  0.00    +0.000 A 
ATOM     11  N   UNL     1     -46.665  -7.315 -30.231  0.00  0.00    +0.000 NA
ATOM     12  C   UNL     1     -46.372  -8.631 -30.406  0.00  0.00    +0.000 A 
ATOM     13  O   UNL     1     -46.330  -9.111 -31.569  0.00  0.00    +0.000 OA
ATOM     14  N   UNL     1     -46.123  -9.436 -29.336  0.00  0.00    +0.000 N 
ATOM     15  C   UNL     1     -46.154  -8.972 -28.059  0.00  0.00    +0.000 A 
ATOM     16  O   UNL     1     -45.916  -9.755 -27.101  0.00  0.00    +0.000 OA
ATOM     17  C   UNL     1     -46.449  -7.630 -27.824  0.00  0.00    +0.000 A 
ATOM     18  N   UNL     1     -46.495  -7.099 -26.580  0.00  0.00    +0.000 NA
ATOM     19  H   UNL     1     -45.914 -10.385 -29.492  0.00  0.00    +0.000 HD
ENDROOT
BRANCH   9  20
ATOM     20  C   UNL     1     -47.295  -4.595 -29.946  0.00  0.00    +0.000 C 
BRANCH  20  21
ATOM     21  C   UNL     1     -46.008  -4.004 -30.503  0.00  0.00    +0.000 C 
BRANCH  21  22
ATOM     22  O   UNL     1     -46.081  -2.608 -30.511  0.00  0.00    +0.000 OA
ATOM     23  H   UNL     1     -46.724  -2.313 -29.847  0.00  0.00    +0.000 HD
ENDBRANCH  21  22
BRANCH  21  24
ATOM     24  C   UNL     1     -45.744  -4.539 -31.909  0.00  0.00    +0.000 C 
BRANCH  24  25
ATOM     25  O   UNL     1     -44.853  -5.615 -31.855  0.00  0.00    +0.000 OA
ATOM     26  H   UNL     1     -45.219  -6.364 -32.352  0.00  0.00    +0.000 HD
ENDBRANCH  24  25
BRANCH  24  27
ATOM     27  C   UNL     1     -47.042  -4.963 -32.591  0.00  0.00    +0.000 C 
BRANCH  27  28
ATOM     28  O   UNL     1     -46.937  -6.282 -33.035  0.00  0.00    +0.000 OA
ATOM     29  H   UNL     1     -46.483  -6.299 -33.892  0.00  0.00    +0.000 HD
ENDBRANCH  27  28
BRANCH  27  30
ATOM     30  C   UNL     1     -47.337  -4.058 -33.779  0.00  0.00    +0.000 C 
BRANCH  30  31
ATOM     31  O   UNL     1     -47.033  -2.736 -33.455  0.00  0.00    +0.000 OA
ATOM     32  H   UNL     1     -46.098  -2.671 -33.205  0.00  0.00    +0.000 HD
ENDBRANCH  30  31
ENDBRANCH  27  30
ENDBRANCH  24  27
ENDBRANCH  21  24
ENDBRANCH  20  21
ENDBRANCH   9  20
TORSDOF 9
ENDMDL
MODEL 2
REMARK VINA RESULT:      -5.7      2.877      6.534
REMARK  Name = ZINC000003831423 ZINC03831423 PubChem-7048776
REMARK  9 active torsions:
REMARK  status: ('A' for Active; 'I' for Inactive)
REMARK    1  A    between atoms: N_9  and  C_20
REMARK    2  A    between atoms: C_20  and  C_21
REMARK    3  A    between atoms: C_21  and  O_22
REMARK    4  A    between atoms: C_21  and  C_24
REMARK    5  A    between atoms: C_24  and  O_25
REMARK    6  A    between atoms: C_24  and  C_27
REMARK    7  A    between atoms: C_27  and  O_28
REMARK    8  A    between atoms: C_27  and  C_30
REMARK    9  A    between atoms: C_30  and  O_31
REMARK                            x       y       z     vdW  Elec       q    Type
REMARK                         _______ _______ _______ _____ _____    ______ ____
ROOT
ATOM      1  C   UNL     1     -45.394 -11.483 -35.004  0.00  0.00    +0.000 C 
ATOM      2  C   UNL     1     -45.720 -10.128 -34.474  0.00  0.00    +0.000 A 
ATOM      3  C   UNL     1     -45.984  -9.987 -33.110  0.00  0.00    +0.000 A 
ATOM      4  C   UNL     1     -46.293  -8.736 -32.570  0.00  0.00    +0.000 A 
ATOM      5  C   UNL     1     -46.341  -7.591 -33.410  0.00  0.00    +0.000 A 
ATOM      6  C   UNL     1     -46.076  -7.748 -34.781  0.00  0.00    +0.000 A 
ATOM      7  C   UNL     1     -45.768  -9.002 -35.315  0.00  0.00    +0.000 A 
ATOM      8  C   UNL     1     -45.493  -9.108 -36.777  0.00  0.00    +0.000 C 
ATOM      9  N   UNL     1     -46.643  -6.357 -32.883  0.00  0.00    +0.000 N 
ATOM     10  C   UNL     1     -46.903  -6.234 -31.548  0.00  0.00    +0.000 A 
ATOM     11  N   UNL     1     -47.212  -5.038 -30.983  0.00  0.00    +0.000 NA
ATOM     12  C   UNL     1     -47.465  -4.938 -29.650  0.00  0.00    +0.000 A 
ATOM     13  O   UNL     1     -47.748  -3.817 -29.153  0.00  0.00    +0.000 OA
ATOM     14  N   UNL     1     -47.415  -6.038 -28.848  0.00  0.00    +0.000 N 
ATOM     15  C   UNL     1     -47.115  -7.272 -29.332  0.00  0.00    +0.000 A 
ATOM     16  O   UNL     1     -47.083  -8.260 -28.552  0.00  0.00    +0.000 OA
ATOM     17  C   UNL     1     -46.849  -7.430 -30.691  0.00  0.00    +0.000 A 
ATOM     18  N   UNL     1     -46.545  -8.629 -31.241  0.00  0.00    +0.000 NA
ATOM     19  H   UNL     1     -47.603  -5.936 -27.888  0.00  0.00    +0.000 HD
ENDROOT
BRANCH   9  20
ATOM     20  C   UNL     1     -46.682  -5.165 -33.735  0.00  0.00    +0.000 C 
BRANCH  20  21
ATOM     21  C   UNL     1     -45.391  -4.370 -33.602  0.00  0.00    +0.000 C 
BRANCH  21  22
ATOM     22  O   UNL     1     -44.610  -4.884 -32.563  0.00  0.00    +0.000 OA
ATOM     23  H   UNL     1     -44.792  -5.832 -32.460  0.00  0.00    +0.000 HD
ENDBRANCH  21  22
BRANCH  21  24
ATOM     24  C   UNL     1     -45.700  -2.892 -33.364  0.00  0.00    +0.000 C 
BRANCH  24  25
ATOM     25  O   UNL     1     -47.078  -2.707 -33.211  0.00  0.00    +0.000 OA
ATOM     26  H   UNL     1     -47.554  -3.364 -33.742  0.00  0.00    +0.000 HD
ENDBRANCH  24  25
BRANCH  24  27
ATOM     27  C   UNL     1     -44.957  -2.364 -32.140  0.00  0.00    +0.000 C 
BRANCH  27  28
ATOM     28  O   UNL     1     -45.829  -2.286 -31.052  0.00  0.00    +0.000 OA
ATOM     29  H   UNL     1     -45.771  -1.403 -30.654  0.00  0.00    +0.000 HD
ENDBRANCH  27  28
BRANCH  27  30
ATOM     30  C   UNL     1     -44.388  -0.981 -32.423  0.00  0.00    +0.000 C 
BRANCH  30  31
ATOM     31  O   UNL     1     -43.943  -0.912 -33.743  0.00  0.00    +0.000 OA
ATOM     32  H   UNL     1     -44.356  -0.153 -34.183  0.00  0.00    +0.000 HD
ENDBRANCH  30  31
ENDBRANCH  27  30
ENDBRANCH  24  27
ENDBRANCH  21  24
ENDBRANCH  20  21
ENDBRANCH   9  20
TORSDOF 9
ENDMDL
MODEL 3
REMARK VINA RESULT:      -5.6     11.357     15.209
REMARK  Name = ZINC000003831423 ZINC03831423 PubChem-7048776
REMARK  9 active torsions:
REMARK  status: ('A' for Active; 'I' for Inactive)
REMARK    1  A    between atoms: N_9  and  C_20
REMARK    2  A    between atoms: C_20  and  C_21
REMARK    3  A    between atoms: C_21  and  O_22
REMARK    4  A    between atoms: C_21  and  C_24
REMARK    5  A    between atoms: C_24  and  O_25
REMARK    6  A    between atoms: C_24  and  C_27
REMARK    7  A    between atoms: C_27  and  O_28
REMARK    8  A    between atoms: C_27  and  C_30
REMARK    9  A    between atoms: C_30  and  O_31
REMARK                            x       y       z     vdW  Elec       q    Type
REMARK                         _______ _______ _______ _____ _____    ______ ____
ROOT
ATOM      1  C   UNL     1     -46.550 -12.401 -19.358  0.00  0.00    +0.000 C 
ATOM      2  C   UNL     1     -46.306 -13.770 -19.896  0.00  0.00    +0.000 A 
ATOM      3  C   UNL     1     -46.160 -13.933 -21.275  0.00  0.00    +0.000 A 
ATOM      4  C   UNL     1     -45.929 -15.197 -21.822  0.00  0.00    +0.000 A 
ATOM      5  C   UNL     1     -45.837 -16.334 -20.974  0.00  0.00    +0.000 A 
ATOM      6  C   UNL     1     -45.988 -16.155 -19.588  0.00  0.00    +0.000 A 
ATOM      7  C   UNL     1     -46.220 -14.888 -19.048  0.00  0.00    +0.000 A 
ATOM      8  C   UNL     1     -46.369 -14.759 -17.569  0.00  0.00    +0.000 C 
ATOM      9  N   UNL     1     -45.607 -17.580 -21.508  0.00  0.00    +0.000 N 
ATOM     10  C   UNL     1     -45.471 -17.725 -22.859  0.00  0.00    +0.000 A 
ATOM     11  N   UNL     1     -45.249 -18.937 -23.433  0.00  0.00    +0.000 NA
ATOM     12  C   UNL     1     -45.115 -19.059 -24.781  0.00  0.00    +0.000 A 
ATOM     13  O   UNL     1     -44.909 -20.192 -25.286  0.00  0.00    +0.000 OA
ATOM     14  N   UNL     1     -45.201 -17.966 -25.590  0.00  0.00    +0.000 N 
ATOM     15  C   UNL     1     -45.422 -16.718 -25.099  0.00  0.00    +0.000 A 
ATOM     16  O   UNL     1     -45.495 -15.738 -25.886  0.00  0.00    +0.000 OA
ATOM     17  C   UNL     1     -45.568 -16.538 -23.724  0.00  0.00    +0.000 A 
ATOM     18  N   UNL     1     -45.792 -15.325 -23.166  0.00  0.00    +0.000 NA
ATOM     19  H   UNL     1     -45.100 -18.083 -26.562  0.00  0.00    +0.000 HD
ENDROOT
BRANCH   9  20
ATOM     20  C   UNL     1     -45.496 -18.759 -20.644  0.00  0.00    +0.000 C 
BRANCH  20  21
ATOM     21  C   UNL     1     -44.037 -19.057 -20.330  0.00  0.00    +0.000 C 
BRANCH  21  22
ATOM     22  O   UNL     1     -43.551 -20.051 -21.184  0.00  0.00    +0.000 OA
ATOM     23  H   UNL     1     -42.717 -19.755 -21.584  0.00  0.00    +0.000 HD
ENDBRANCH  21  22
BRANCH  21  24
ATOM     24  C   UNL     1     -43.884 -19.480 -18.869  0.00  0.00    +0.000 C 
BRANCH  24  25
ATOM     25  O   UNL     1     -44.573 -20.675 -18.639  0.00  0.00    +0.000 OA
ATOM     26  H   UNL     1     -45.526 -20.499 -18.610  0.00  0.00    +0.000 HD
ENDBRANCH  24  25
BRANCH  24  27
ATOM     27  C   UNL     1     -42.414 -19.636 -18.491  0.00  0.00    +0.000 C 
BRANCH  27  28
ATOM     28  O   UNL     1     -41.604 -19.175 -19.531  0.00  0.00    +0.000 OA
ATOM     29  H   UNL     1     -41.061 -18.437 -19.213  0.00  0.00    +0.000 HD
ENDBRANCH  27  28
BRANCH  27  30
ATOM     30  C   UNL     1     -42.091 -21.098 -18.217  0.00  0.00    +0.000 C 
BRANCH  30  31
ATOM     31  O   UNL     1     -42.028 -21.803 -19.419  0.00  0.00    +0.000 OA
ATOM     32  H   UNL     1     -42.805 -21.589 -19.959  0.00  0.00    +0.000 HD
ENDBRANCH  30  31
ENDBRANCH  27  30
ENDBRANCH  24  27
ENDBRANCH  21  24
ENDBRANCH  20  21
ENDBRANCH   9  20
TORSDOF 9
ENDMDL
