MODEL 1
REMARK VINA RESULT:      -6.7      0.000      0.000
REMARK  Name = ZINC000031808022
REMARK  1 active torsions:
REMARK  status: ('A' for Active; 'I' for Inactive)
REMARK    1  A    between atoms: C_7  and  C_24
REMARK                            x       y       z     vdW  Elec       q    Type
REMARK                         _______ _______ _______ _____ _____    ______ ____
ROOT
ATOM      1  C   UNL     1     -47.130  -3.417 -33.717  0.00  0.00    +0.000 C 
ATOM      2  C   UNL     1     -46.464  -4.748 -33.769  0.00  0.00    +0.000 A 
ATOM      3  N   UNL     1     -46.776  -5.697 -34.668  0.00  0.00    +0.000 NA
ATOM      4  N   UNL     1     -45.999  -6.741 -34.434  0.00  0.00    +0.000 N 
ATOM      5  C   UNL     1     -45.159  -6.467 -33.409  0.00  0.00    +0.000 A 
ATOM      6  C   UNL     1     -45.446  -5.187 -32.939  0.00  0.00    +0.000 A 
ATOM      7  C   UNL     1     -44.821  -4.354 -31.853  0.00  0.00    +0.000 C 
ATOM      8  S   UNL     1     -44.132  -5.292 -30.453  0.00  0.00    +0.000 S 
ATOM      9  C   UNL     1     -42.742  -5.915 -31.425  0.00  0.00    +0.000 C 
ATOM     10  C   UNL     1     -43.090  -7.228 -32.021  0.00  0.00    +0.000 C 
ATOM     11  O   UNL     1     -42.402  -8.230 -31.702  0.00  0.00    +0.000 OA
ATOM     12  N   UNL     1     -44.148  -7.389 -32.969  0.00  0.00    +0.000 N 
ATOM     13  H   UNL     1     -44.191  -8.279 -33.390  0.00  0.00    +0.000 HD
ATOM     14  C   UNL     1     -46.044  -7.932 -35.233  0.00  0.00    +0.000 A 
ATOM     15  N   UNL     1     -46.257  -7.845 -36.580  0.00  0.00    +0.000 NA
ATOM     16  C   UNL     1     -46.334  -8.965 -37.368  0.00  0.00    +0.000 A 
ATOM     17  N   UNL     1     -46.216 -10.210 -36.817  0.00  0.00    +0.000 NA
ATOM     18  C   UNL     1     -46.018 -10.299 -35.480  0.00  0.00    +0.000 A 
ATOM     19  N   UNL     1     -45.936 -11.424 -34.759  0.00  0.00    +0.000 N 
ATOM     20  C   UNL     1     -45.806 -10.949 -33.490  0.00  0.00    +0.000 A 
ATOM     21  N   UNL     1     -45.812  -9.590 -33.406  0.00  0.00    +0.000 NA
ATOM     22  C   UNL     1     -45.937  -9.212 -34.686  0.00  0.00    +0.000 A 
ATOM     23  H   UNL     1     -45.963 -12.358 -35.068  0.00  0.00    +0.000 HD
ENDROOT
BRANCH   7  24
ATOM     24  C   UNL     1     -43.932  -3.245 -32.353  0.00  0.00    +0.000 A 
ATOM     25  C   UNL     1     -42.879  -3.522 -33.239  0.00  0.00    +0.000 A 
ATOM     26  C   UNL     1     -42.055  -2.495 -33.707  0.00  0.00    +0.000 A 
ATOM     27  C   UNL     1     -42.278  -1.181 -33.293  0.00  0.00    +0.000 A 
ATOM     28  C   UNL     1     -43.324  -0.893 -32.413  0.00  0.00    +0.000 A 
ATOM     29  C   UNL     1     -44.153  -1.917 -31.942  0.00  0.00    +0.000 A 
ATOM     30 CL   UNL     1     -45.459  -1.499 -30.844  0.00  0.00    +0.000 Cl
ENDBRANCH   7  24
TORSDOF 1
ENDMDL
MODEL 2
REMARK VINA RESULT:      -6.6      4.543      7.230
REMARK  Name = ZINC000031808022
REMARK  1 active torsions:
REMARK  status: ('A' for Active; 'I' for Inactive)
REMARK    1  A    between atoms: C_7  and  C_24
REMARK                            x       y       z     vdW  Elec       q    Type
REMARK                         _______ _______ _______ _____ _____    ______ ____
ROOT
ATOM      1  C   UNL     1     -42.632  -6.762 -27.490  0.00  0.00    +0.000 C 
ATOM      2  C   UNL     1     -43.110  -6.097 -28.734  0.00  0.00    +0.000 A 
ATOM      3  N   UNL     1     -42.294  -5.728 -29.736  0.00  0.00    +0.000 NA
ATOM      4  N   UNL     1     -43.041  -5.175 -30.677  0.00  0.00    +0.000 N 
ATOM      5  C   UNL     1     -44.342  -5.210 -30.309  0.00  0.00    +0.000 A 
ATOM      6  C   UNL     1     -44.423  -5.784 -29.042  0.00  0.00    +0.000 A 
ATOM      7  C   UNL     1     -45.599  -6.107 -28.161  0.00  0.00    +0.000 C 
ATOM      8  S   UNL     1     -47.025  -4.988 -28.328  0.00  0.00    +0.000 S 
ATOM      9  C   UNL     1     -47.469  -5.636 -29.956  0.00  0.00    +0.000 C 
ATOM     10  C   UNL     1     -46.820  -4.827 -31.016  0.00  0.00    +0.000 C 
ATOM     11  O   UNL     1     -47.552  -4.221 -31.838  0.00  0.00    +0.000 OA
ATOM     12  N   UNL     1     -45.399  -4.741 -31.161  0.00  0.00    +0.000 N 
ATOM     13  H   UNL     1     -45.097  -4.284 -31.981  0.00  0.00    +0.000 HD
ATOM     14  C   UNL     1     -42.494  -4.692 -31.913  0.00  0.00    +0.000 A 
ATOM     15  N   UNL     1     -41.466  -5.362 -32.515  0.00  0.00    +0.000 NA
ATOM     16  C   UNL     1     -40.902  -4.913 -33.681  0.00  0.00    +0.000 A 
ATOM     17  N   UNL     1     -41.346  -3.761 -34.267  0.00  0.00    +0.000 NA
ATOM     18  C   UNL     1     -42.355  -3.087 -33.665  0.00  0.00    +0.000 A 
ATOM     19  N   UNL     1     -42.881  -1.920 -34.056  0.00  0.00    +0.000 N 
ATOM     20  C   UNL     1     -43.794  -1.669 -33.079  0.00  0.00    +0.000 A 
ATOM     21  N   UNL     1     -43.844  -2.624 -32.111  0.00  0.00    +0.000 NA
ATOM     22  C   UNL     1     -42.927  -3.512 -32.519  0.00  0.00    +0.000 A 
ATOM     23  H   UNL     1     -42.663  -1.380 -34.850  0.00  0.00    +0.000 HD
ENDROOT
BRANCH   7  24
ATOM     24  C   UNL     1     -45.960  -7.568 -28.113  0.00  0.00    +0.000 A 
ATOM     25  C   UNL     1     -45.804  -8.377 -29.250  0.00  0.00    +0.000 A 
ATOM     26  C   UNL     1     -46.135  -9.734 -29.208  0.00  0.00    +0.000 A 
ATOM     27  C   UNL     1     -46.624 -10.294 -28.028  0.00  0.00    +0.000 A 
ATOM     28  C   UNL     1     -46.782  -9.500 -26.890  0.00  0.00    +0.000 A 
ATOM     29  C   UNL     1     -46.452  -8.141 -26.925  0.00  0.00    +0.000 A 
ATOM     30 CL   UNL     1     -46.661  -7.190 -25.463  0.00  0.00    +0.000 Cl
ENDBRANCH   7  24
TORSDOF 1
ENDMDL
MODEL 3
REMARK VINA RESULT:      -6.6      5.552      8.821
REMARK  Name = ZINC000031808022
REMARK  1 active torsions:
REMARK  status: ('A' for Active; 'I' for Inactive)
REMARK    1  A    between atoms: C_7  and  C_24
REMARK                            x       y       z     vdW  Elec       q    Type
REMARK                         _______ _______ _______ _____ _____    ______ ____
ROOT
ATOM      1  C   UNL     1     -43.841  -0.344 -32.363  0.00  0.00    +0.000 C 
ATOM      2  C   UNL     1     -42.415  -0.773 -32.408  0.00  0.00    +0.000 A 
ATOM      3  N   UNL     1     -41.402  -0.024 -31.938  0.00  0.00    +0.000 NA
ATOM      4  N   UNL     1     -40.282  -0.701 -32.131  0.00  0.00    +0.000 N 
ATOM      5  C   UNL     1     -40.561  -1.899 -32.694  0.00  0.00    +0.000 A 
ATOM      6  C   UNL     1     -41.937  -1.973 -32.907  0.00  0.00    +0.000 A 
ATOM      7  C   UNL     1     -42.807  -3.066 -33.462  0.00  0.00    +0.000 C 
ATOM      8  S   UNL     1     -42.020  -4.127 -34.715  0.00  0.00    +0.000 S 
ATOM      9  C   UNL     1     -40.960  -4.944 -33.500  0.00  0.00    +0.000 C 
ATOM     10  C   UNL     1     -39.660  -4.237 -33.406  0.00  0.00    +0.000 C 
ATOM     11  O   UNL     1     -38.614  -4.869 -33.697  0.00  0.00    +0.000 OA
ATOM     12  N   UNL     1     -39.548  -2.882 -32.961  0.00  0.00    +0.000 N 
ATOM     13  H   UNL     1     -38.624  -2.573 -32.814  0.00  0.00    +0.000 HD
ATOM     14  C   UNL     1     -39.000  -0.206 -31.717  0.00  0.00    +0.000 A 
ATOM     15  N   UNL     1     -38.883   0.503 -30.554  0.00  0.00    +0.000 NA
ATOM     16  C   UNL     1     -37.678   1.013 -30.144  0.00  0.00    +0.000 A 
ATOM     17  N   UNL     1     -36.556   0.841 -30.905  0.00  0.00    +0.000 NA
ATOM     18  C   UNL     1     -36.673   0.151 -32.065  0.00  0.00    +0.000 A 
ATOM     19  N   UNL     1     -35.706  -0.070 -32.963  0.00  0.00    +0.000 N 
ATOM     20  C   UNL     1     -36.367  -0.738 -33.947  0.00  0.00    +0.000 A 
ATOM     21  N   UNL     1     -37.690  -0.929 -33.692  0.00  0.00    +0.000 NA
ATOM     22  C   UNL     1     -37.847  -0.363 -32.487  0.00  0.00    +0.000 A 
ATOM     23  H   UNL     1     -34.756   0.187 -32.922  0.00  0.00    +0.000 HD
ENDROOT
BRANCH   7  24
ATOM     24  C   UNL     1     -43.603  -3.817 -32.427  0.00  0.00    +0.000 A 
ATOM     25  C   UNL     1     -42.951  -4.521 -31.402  0.00  0.00    +0.000 A 
ATOM     26  C   UNL     1     -43.686  -5.215 -30.437  0.00  0.00    +0.000 A 
ATOM     27  C   UNL     1     -45.080  -5.210 -30.489  0.00  0.00    +0.000 A 
ATOM     28  C   UNL     1     -45.740  -4.511 -31.503  0.00  0.00    +0.000 A 
ATOM     29  C   UNL     1     -45.010  -3.814 -32.471  0.00  0.00    +0.000 A 
ATOM     30 CL   UNL     1     -45.890  -2.944 -33.719  0.00  0.00    +0.000 Cl
ENDBRANCH   7  24
TORSDOF 1
ENDMDL
