MODEL 1
REMARK VINA RESULT:      -7.4      0.000      0.000
REMARK  Name = ZINC000009312448
REMARK  7 active torsions:
REMARK  status: ('A' for Active; 'I' for Inactive)
REMARK    1  A    between atoms: C_1  and  C_12
REMARK    2  A    between atoms: C_2  and  C_19
REMARK    3  A    between atoms: C_3  and  O_4
REMARK    4  A    between atoms: N_7  and  C_31
REMARK    5  A    between atoms: C_9  and  C_16
REMARK    6  A    between atoms: C_19  and  C_21
REMARK    7  A    between atoms: C_31  and  C_32
REMARK                            x       y       z     vdW  Elec       q    Type
REMARK                         _______ _______ _______ _____ _____    ______ ____
ROOT
ATOM      1  C   UNL     1     -43.704 -17.905 -23.053  0.00  0.00    +0.000 C 
ATOM      2  C   UNL     1     -44.583 -18.715 -23.985  0.00  0.00    +0.000 C 
ATOM      3  C   UNL     1     -44.204 -19.993 -23.986  0.00  0.00    +0.000 C 
ATOM      4  C   UNL     1     -43.111 -20.149 -23.063  0.00  0.00    +0.000 C 
ATOM      5  O   UNL     1     -42.482 -21.217 -22.840  0.00  0.00    +0.000 OA
ATOM      6  N   UNL     1     -42.808 -18.899 -22.467  0.00  0.00    +0.000 N 
ENDROOT
BRANCH   1  10
ATOM      7  C   UNL     1     -45.971 -15.939 -19.947  0.00  0.00    +0.000 A 
ATOM      8  C   UNL     1     -46.072 -17.331 -20.125  0.00  0.00    +0.000 A 
ATOM      9  C   UNL     1     -45.349 -17.974 -21.132  0.00  0.00    +0.000 A 
ATOM     10  C   UNL     1     -44.514 -17.234 -21.982  0.00  0.00    +0.000 A 
ATOM     11  C   UNL     1     -44.406 -15.852 -21.812  0.00  0.00    +0.000 A 
ATOM     12  C   UNL     1     -45.129 -15.210 -20.805  0.00  0.00    +0.000 A 
BRANCH   7  14
ATOM     13  C   UNL     1     -47.483 -14.031 -19.450  0.00  0.00    +0.000 C 
ATOM     14  C   UNL     1     -46.744 -15.219 -18.857  0.00  0.00    +0.000 C 
ATOM     15  C   UNL     1     -47.756 -16.162 -18.234  0.00  0.00    +0.000 C 
ATOM     16  C   UNL     1     -45.843 -14.699 -17.745  0.00  0.00    +0.000 C 
ENDBRANCH   7  14
ENDBRANCH   1  10
BRANCH   3  17
ATOM     17  O   UNL     1     -44.734 -21.000 -24.786  0.00  0.00    +0.000 OA
ATOM     18  H   UNL     1     -45.562 -21.382 -24.572  0.00  0.00    +0.000 HD
ENDBRANCH   3  17
BRANCH   2  19
ATOM     19  C   UNL     1     -45.628 -18.124 -24.844  0.00  0.00    +0.000 C 
ATOM     20  O   UNL     1     -46.648 -18.817 -25.110  0.00  0.00    +0.000 OA
BRANCH  19  21
ATOM     21  C   UNL     1     -45.498 -16.777 -25.438  0.00  0.00    +0.000 A 
ATOM     22  C   UNL     1     -46.235 -15.704 -24.910  0.00  0.00    +0.000 A 
ATOM     23  C   UNL     1     -46.143 -14.429 -25.478  0.00  0.00    +0.000 A 
ATOM     24  C   UNL     1     -45.319 -14.221 -26.586  0.00  0.00    +0.000 A 
ATOM     25  C   UNL     1     -44.610 -15.293 -27.145  0.00  0.00    +0.000 A 
ATOM     26  C   UNL     1     -44.693 -16.563 -26.569  0.00  0.00    +0.000 A 
ATOM     27  O   UNL     1     -43.829 -15.072 -28.281  0.00  0.00    +0.000 OA
ATOM     28  C   UNL     1     -43.964 -13.868 -29.039  0.00  0.00    +0.000 C 
ATOM     29  C   UNL     1     -44.161 -12.673 -28.104  0.00  0.00    +0.000 C 
ATOM     30  O   UNL     1     -45.192 -12.951 -27.154  0.00  0.00    +0.000 OA
ENDBRANCH  19  21
ENDBRANCH   2  19
BRANCH   6  31
ATOM     31  C   UNL     1     -41.607 -18.591 -21.707  0.00  0.00    +0.000 C 
BRANCH  31  32
ATOM     32  C   UNL     1     -41.891 -18.676 -20.246  0.00  0.00    +0.000 A 
ATOM     33  C   UNL     1     -42.076 -17.512 -19.499  0.00  0.00    +0.000 A 
ATOM     34  C   UNL     1     -42.377 -17.599 -18.139  0.00  0.00    +0.000 A 
ATOM     35  C   UNL     1     -42.493 -18.860 -17.546  0.00  0.00    +0.000 A 
ATOM     36  N   UNL     1     -42.314 -19.983 -18.293  0.00  0.00    +0.000 NA
ATOM     37  C   UNL     1     -42.021 -19.918 -19.619  0.00  0.00    +0.000 A 
ENDBRANCH  31  32
ENDBRANCH   6  31
TORSDOF 7
ENDMDL
MODEL 2
REMARK VINA RESULT:      -6.5      2.797      5.559
REMARK  Name = ZINC000009312448
REMARK  7 active torsions:
REMARK  status: ('A' for Active; 'I' for Inactive)
REMARK    1  A    between atoms: C_1  and  C_12
REMARK    2  A    between atoms: C_2  and  C_19
REMARK    3  A    between atoms: C_3  and  O_4
REMARK    4  A    between atoms: N_7  and  C_31
REMARK    5  A    between atoms: C_9  and  C_16
REMARK    6  A    between atoms: C_19  and  C_21
REMARK    7  A    between atoms: C_31  and  C_32
REMARK                            x       y       z     vdW  Elec       q    Type
REMARK                         _______ _______ _______ _____ _____    ______ ____
ROOT
ATOM      1  C   UNL     1     -44.675 -16.331 -20.723  0.00  0.00    +0.000 C 
ATOM      2  C   UNL     1     -45.166 -17.764 -20.679  0.00  0.00    +0.000 C 
ATOM      3  C   UNL     1     -46.226 -17.867 -19.877  0.00  0.00    +0.000 C 
ATOM      4  C   UNL     1     -46.546 -16.558 -19.369  0.00  0.00    +0.000 C 
ATOM      5  O   UNL     1     -47.467 -16.289 -18.553  0.00  0.00    +0.000 OA
ATOM      6  N   UNL     1     -45.632 -15.608 -19.891  0.00  0.00    +0.000 N 
ENDROOT
BRANCH   1  10
ATOM      7  C   UNL     1     -44.759 -14.831 -24.773  0.00  0.00    +0.000 A 
ATOM      8  C   UNL     1     -43.531 -15.063 -24.128  0.00  0.00    +0.000 A 
ATOM      9  C   UNL     1     -43.494 -15.540 -22.817  0.00  0.00    +0.000 A 
ATOM     10  C   UNL     1     -44.687 -15.791 -22.124  0.00  0.00    +0.000 A 
ATOM     11  C   UNL     1     -45.912 -15.566 -22.756  0.00  0.00    +0.000 A 
ATOM     12  C   UNL     1     -45.949 -15.089 -24.068  0.00  0.00    +0.000 A 
BRANCH   7  14
ATOM     13  C   UNL     1     -44.623 -15.468 -27.171  0.00  0.00    +0.000 C 
ATOM     14  C   UNL     1     -44.825 -14.317 -26.199  0.00  0.00    +0.000 C 
ATOM     15  C   UNL     1     -46.183 -13.692 -26.460  0.00  0.00    +0.000 C 
ATOM     16  C   UNL     1     -43.762 -13.267 -26.494  0.00  0.00    +0.000 C 
ENDBRANCH   7  14
ENDBRANCH   1  10
BRANCH   3  17
ATOM     17  O   UNL     1     -46.881 -19.045 -19.537  0.00  0.00    +0.000 OA
ATOM     18  H   UNL     1     -47.527 -19.405 -20.113  0.00  0.00    +0.000 HD
ENDBRANCH   3  17
BRANCH   2  19
ATOM     19  C   UNL     1     -44.479 -18.886 -21.348  0.00  0.00    +0.000 C 
ATOM     20  O   UNL     1     -43.901 -19.748 -20.633  0.00  0.00    +0.000 OA
BRANCH  19  21
ATOM     21  C   UNL     1     -44.404 -19.005 -22.820  0.00  0.00    +0.000 A 
ATOM     22  C   UNL     1     -45.582 -18.978 -23.585  0.00  0.00    +0.000 A 
ATOM     23  C   UNL     1     -45.530 -19.116 -24.976  0.00  0.00    +0.000 A 
ATOM     24  C   UNL     1     -44.299 -19.291 -25.611  0.00  0.00    +0.000 A 
ATOM     25  C   UNL     1     -43.122 -19.358 -24.853  0.00  0.00    +0.000 A 
ATOM     26  C   UNL     1     -43.174 -19.207 -23.465  0.00  0.00    +0.000 A 
ATOM     27  O   UNL     1     -41.907 -19.580 -25.504  0.00  0.00    +0.000 OA
ATOM     28  C   UNL     1     -41.874 -20.021 -26.863  0.00  0.00    +0.000 C 
ATOM     29  C   UNL     1     -42.963 -19.314 -27.674  0.00  0.00    +0.000 C 
ATOM     30  O   UNL     1     -44.221 -19.405 -27.001  0.00  0.00    +0.000 OA
ENDBRANCH  19  21
ENDBRANCH   2  19
BRANCH   6  31
ATOM     31  C   UNL     1     -45.452 -14.249 -19.403  0.00  0.00    +0.000 C 
BRANCH  31  32
ATOM     32  C   UNL     1     -44.090 -14.094 -18.816  0.00  0.00    +0.000 A 
ATOM     33  C   UNL     1     -43.111 -13.370 -19.500  0.00  0.00    +0.000 A 
ATOM     34  C   UNL     1     -41.849 -13.197 -18.929  0.00  0.00    +0.000 A 
ATOM     35  C   UNL     1     -41.588 -13.753 -17.673  0.00  0.00    +0.000 A 
ATOM     36  N   UNL     1     -42.557 -14.450 -17.021  0.00  0.00    +0.000 NA
ATOM     37  C   UNL     1     -43.792 -14.627 -17.560  0.00  0.00    +0.000 A 
ENDBRANCH  31  32
ENDBRANCH   6  31
TORSDOF 7
ENDMDL
MODEL 3
REMARK VINA RESULT:      -6.5      2.581      6.463
REMARK  Name = ZINC000009312448
REMARK  7 active torsions:
REMARK  status: ('A' for Active; 'I' for Inactive)
REMARK    1  A    between atoms: C_1  and  C_12
REMARK    2  A    between atoms: C_2  and  C_19
REMARK    3  A    between atoms: C_3  and  O_4
REMARK    4  A    between atoms: N_7  and  C_31
REMARK    5  A    between atoms: C_9  and  C_16
REMARK    6  A    between atoms: C_19  and  C_21
REMARK    7  A    between atoms: C_31  and  C_32
REMARK                            x       y       z     vdW  Elec       q    Type
REMARK                         _______ _______ _______ _____ _____    ______ ____
ROOT
ATOM      1  C   UNL     1     -45.941 -15.708 -24.689  0.00  0.00    +0.000 C 
ATOM      2  C   UNL     1     -45.409 -17.050 -25.149  0.00  0.00    +0.000 C 
ATOM      3  C   UNL     1     -44.758 -16.919 -26.305  0.00  0.00    +0.000 C 
ATOM      4  C   UNL     1     -44.765 -15.530 -26.682  0.00  0.00    +0.000 C 
ATOM      5  O   UNL     1     -44.274 -15.050 -27.738  0.00  0.00    +0.000 OA
ATOM      6  N   UNL     1     -45.455 -14.774 -25.701  0.00  0.00    +0.000 N 
ENDROOT
BRANCH   1  10
ATOM      7  C   UNL     1     -44.435 -14.587 -20.799  0.00  0.00    +0.000 A 
ATOM      8  C   UNL     1     -43.544 -14.930 -21.832  0.00  0.00    +0.000 A 
ATOM      9  C   UNL     1     -44.022 -15.301 -23.090  0.00  0.00    +0.000 A 
ATOM     10  C   UNL     1     -45.402 -15.340 -23.337  0.00  0.00    +0.000 A 
ATOM     11  C   UNL     1     -46.295 -15.000 -22.318  0.00  0.00    +0.000 A 
ATOM     12  C   UNL     1     -45.816 -14.628 -21.060  0.00  0.00    +0.000 A 
BRANCH   7  14
ATOM     13  C   UNL     1     -43.883 -15.390 -18.514  0.00  0.00    +0.000 C 
ATOM     14  C   UNL     1     -43.939 -14.176 -19.425  0.00  0.00    +0.000 C 
ATOM     15  C   UNL     1     -42.546 -13.584 -19.535  0.00  0.00    +0.000 C 
ATOM     16  C   UNL     1     -44.837 -13.139 -18.763  0.00  0.00    +0.000 C 
ENDBRANCH   7  14
ENDBRANCH   1  10
BRANCH   3  17
ATOM     17  O   UNL     1     -44.214 -17.955 -27.057  0.00  0.00    +0.000 OA
ATOM     18  H   UNL     1     -44.600 -18.808 -27.028  0.00  0.00    +0.000 HD
ENDBRANCH   3  17
BRANCH   2  19
ATOM     19  C   UNL     1     -45.684 -18.322 -24.454  0.00  0.00    +0.000 C 
ATOM     20  O   UNL     1     -46.526 -19.113 -24.960  0.00  0.00    +0.000 OA
BRANCH  19  21
ATOM     21  C   UNL     1     -45.048 -18.676 -23.167  0.00  0.00    +0.000 A 
ATOM     22  C   UNL     1     -45.748 -18.486 -21.964  0.00  0.00    +0.000 A 
ATOM     23  C   UNL     1     -45.150 -18.790 -20.737  0.00  0.00    +0.000 A 
ATOM     24  C   UNL     1     -43.844 -19.280 -20.704  0.00  0.00    +0.000 A 
ATOM     25  C   UNL     1     -43.123 -19.436 -21.896  0.00  0.00    +0.000 A 
ATOM     26  C   UNL     1     -43.725 -19.144 -23.122  0.00  0.00    +0.000 A 
ATOM     27  O   UNL     1     -41.801 -19.883 -21.837  0.00  0.00    +0.000 OA
ATOM     28  C   UNL     1     -41.091 -19.905 -20.596  0.00  0.00    +0.000 C 
ATOM     29  C   UNL     1     -42.015 -20.360 -19.465  0.00  0.00    +0.000 C 
ATOM     30  O   UNL     1     -43.235 -19.615 -19.492  0.00  0.00    +0.000 OA
ENDBRANCH  19  21
ENDBRANCH   2  19
BRANCH   6  31
ATOM     31  C   UNL     1     -45.914 -13.402 -25.856  0.00  0.00    +0.000 C 
BRANCH  31  32
ATOM     32  C   UNL     1     -45.041 -12.480 -25.075  0.00  0.00    +0.000 A 
ATOM     33  C   UNL     1     -45.541 -11.834 -23.943  0.00  0.00    +0.000 A 
ATOM     34  C   UNL     1     -44.708 -11.000 -23.195  0.00  0.00    +0.000 A 
ATOM     35  C   UNL     1     -43.379 -10.829 -23.594  0.00  0.00    +0.000 A 
ATOM     36  N   UNL     1     -42.910 -11.472 -24.697  0.00  0.00    +0.000 NA
ATOM     37  C   UNL     1     -43.706 -12.289 -25.437  0.00  0.00    +0.000 A 
ENDBRANCH  31  32
ENDBRANCH   6  31
TORSDOF 7
ENDMDL
