MODEL 1
REMARK VINA RESULT:      -6.3      0.000      0.000
REMARK  Name = ZINC000670444915
REMARK  7 active torsions:
REMARK  status: ('A' for Active; 'I' for Inactive)
REMARK    1  A    between atoms: N_1  and  C_18
REMARK    2  A    between atoms: C_2  and  C_5
REMARK    3  A    between atoms: N_9  and  C_11
REMARK    4  A    between atoms: C_11  and  C_12
REMARK    5  A    between atoms: C_18  and  C_19
REMARK    6  A    between atoms: C_19  and  C_25
REMARK    7  A    between atoms: C_27  and  O_28
REMARK                            x       y       z     vdW  Elec       q    Type
REMARK                         _______ _______ _______ _____ _____    ______ ____
ROOT
ATOM      1  N   UNL     1     -41.675 -20.351 -21.682  0.00  0.00    +0.000 N 
ATOM      2  C   UNL     1     -42.353 -20.648 -22.906  0.00  0.00    +0.000 C 
ATOM      3  O   UNL     1     -42.563 -21.843 -23.244  0.00  0.00    +0.000 OA
ATOM      4  H   UNL     1     -41.482 -19.412 -21.458  0.00  0.00    +0.000 HD
ENDROOT
BRANCH   2   5
ATOM      5  C   UNL     1     -42.858 -19.543 -23.774  0.00  0.00    +0.000 C 
ATOM      6  C   UNL     1     -43.975 -20.056 -24.691  0.00  0.00    +0.000 C 
ATOM      7  C   UNL     1     -45.111 -19.175 -24.362  0.00  0.00    +0.000 C 
ATOM      8  O   UNL     1     -46.252 -19.282 -24.882  0.00  0.00    +0.000 OA
ATOM      9  N   UNL     1     -44.793 -18.211 -23.381  0.00  0.00    +0.000 N 
ATOM     10  C   UNL     1     -43.435 -18.401 -22.919  0.00  0.00    +0.000 C 
BRANCH   9  11
ATOM     11  C   UNL     1     -45.735 -17.289 -22.765  0.00  0.00    +0.000 C 
BRANCH  11  12
ATOM     12  C   UNL     1     -45.707 -15.972 -23.464  0.00  0.00    +0.000 A 
ATOM     13  C   UNL     1     -44.938 -14.921 -22.958  0.00  0.00    +0.000 A 
ATOM     14  C   UNL     1     -44.903 -13.698 -23.631  0.00  0.00    +0.000 A 
ATOM     15  C   UNL     1     -45.634 -13.550 -24.811  0.00  0.00    +0.000 A 
ATOM     16  N   UNL     1     -46.372 -14.587 -25.293  0.00  0.00    +0.000 NA
ATOM     17  C   UNL     1     -46.420 -15.786 -24.650  0.00  0.00    +0.000 A 
ENDBRANCH  11  12
ENDBRANCH   9  11
ENDBRANCH   2   5
BRANCH   1  18
ATOM     18  C   UNL     1     -41.265 -21.397 -20.759  0.00  0.00    +0.000 C 
BRANCH  18  19
ATOM     19  C   UNL     1     -41.388 -20.906 -19.326  0.00  0.00    +0.000 C 
BRANCH  19  25
ATOM     20  C   UNL     1     -45.567 -14.526 -19.090  0.00  0.00    +0.000 C 
ATOM     21  C   UNL     1     -44.893 -15.853 -19.100  0.00  0.00    +0.000 A 
ATOM     22  S   UNL     1     -43.214 -16.065 -19.089  0.00  0.00    +0.000 S 
ATOM     23  C   UNL     1     -43.302 -17.739 -19.121  0.00  0.00    +0.000 A 
ATOM     24  N   UNL     1     -42.262 -18.603 -19.155  0.00  0.00    +0.000 NA
ATOM     25  C   UNL     1     -42.518 -19.940 -19.204  0.00  0.00    +0.000 A 
ATOM     26  N   UNL     1     -43.808 -20.394 -19.233  0.00  0.00    +0.000 NA
ATOM     27  C   UNL     1     -44.867 -19.536 -19.200  0.00  0.00    +0.000 A 
ATOM     28  C   UNL     1     -44.617 -18.162 -19.145  0.00  0.00    +0.000 A 
ATOM     29  C   UNL     1     -45.533 -17.095 -19.129  0.00  0.00    +0.000 A 
ATOM     30  C   UNL     1     -47.017 -17.253 -19.157  0.00  0.00    +0.000 C 
BRANCH  27  31
ATOM     31  O   UNL     1     -46.162 -20.037 -19.225  0.00  0.00    +0.000 OA
ATOM     32  H   UNL     1     -46.512 -20.394 -20.018  0.00  0.00    +0.000 HD
ENDBRANCH  27  31
ENDBRANCH  19  25
ENDBRANCH  18  19
ENDBRANCH   1  18
TORSDOF 7
ENDMDL
MODEL 2
REMARK VINA RESULT:      -5.9     13.764     18.082
REMARK  Name = ZINC000670444915
REMARK  7 active torsions:
REMARK  status: ('A' for Active; 'I' for Inactive)
REMARK    1  A    between atoms: N_1  and  C_18
REMARK    2  A    between atoms: C_2  and  C_5
REMARK    3  A    between atoms: N_9  and  C_11
REMARK    4  A    between atoms: C_11  and  C_12
REMARK    5  A    between atoms: C_18  and  C_19
REMARK    6  A    between atoms: C_19  and  C_25
REMARK    7  A    between atoms: C_27  and  O_28
REMARK                            x       y       z     vdW  Elec       q    Type
REMARK                         _______ _______ _______ _____ _____    ______ ____
ROOT
ATOM      1  N   UNL     1     -44.867  -1.756 -33.057  0.00  0.00    +0.000 N 
ATOM      2  C   UNL     1     -45.593  -2.208 -31.910  0.00  0.00    +0.000 C 
ATOM      3  O   UNL     1     -45.464  -1.620 -30.803  0.00  0.00    +0.000 OA
ATOM      4  H   UNL     1     -44.947  -2.256 -33.901  0.00  0.00    +0.000 HD
ENDROOT
BRANCH   2   5
ATOM      5  C   UNL     1     -46.544  -3.353 -32.025  0.00  0.00    +0.000 C 
ATOM      6  C   UNL     1     -47.120  -3.424 -33.445  0.00  0.00    +0.000 C 
ATOM      7  C   UNL     1     -46.756  -4.784 -33.886  0.00  0.00    +0.000 C 
ATOM      8  O   UNL     1     -47.022  -5.242 -35.027  0.00  0.00    +0.000 OA
ATOM      9  N   UNL     1     -46.054  -5.512 -32.902  0.00  0.00    +0.000 N 
ATOM     10  C   UNL     1     -45.829  -4.684 -31.736  0.00  0.00    +0.000 C 
BRANCH   9  11
ATOM     11  C   UNL     1     -45.458  -6.827 -33.087  0.00  0.00    +0.000 C 
BRANCH  11  12
ATOM     12  C   UNL     1     -45.956  -7.774 -32.050  0.00  0.00    +0.000 A 
ATOM     13  C   UNL     1     -45.083  -8.291 -31.088  0.00  0.00    +0.000 A 
ATOM     14  C   UNL     1     -45.563  -9.163 -30.109  0.00  0.00    +0.000 A 
ATOM     15  C   UNL     1     -46.919  -9.497 -30.102  0.00  0.00    +0.000 A 
ATOM     16  N   UNL     1     -47.756  -8.978 -31.041  0.00  0.00    +0.000 NA
ATOM     17  C   UNL     1     -47.306  -8.129 -32.005  0.00  0.00    +0.000 A 
ENDBRANCH  11  12
ENDBRANCH   9  11
ENDBRANCH   2   5
BRANCH   1  18
ATOM     18  C   UNL     1     -44.014  -0.579 -33.009  0.00  0.00    +0.000 C 
BRANCH  18  19
ATOM     19  C   UNL     1     -42.564  -0.977 -33.236  0.00  0.00    +0.000 C 
BRANCH  19  25
ATOM     20  C   UNL     1     -41.608  -8.280 -35.230  0.00  0.00    +0.000 C 
ATOM     21  C   UNL     1     -41.814  -6.910 -34.684  0.00  0.00    +0.000 A 
ATOM     22  S   UNL     1     -42.116  -5.544 -35.636  0.00  0.00    +0.000 S 
ATOM     23  C   UNL     1     -42.202  -4.500 -34.328  0.00  0.00    +0.000 A 
ATOM     24  N   UNL     1     -42.408  -3.164 -34.371  0.00  0.00    +0.000 NA
ATOM     25  C   UNL     1     -42.423  -2.461 -33.204  0.00  0.00    +0.000 A 
ATOM     26  N   UNL     1     -42.219  -3.100 -32.012  0.00  0.00    +0.000 NA
ATOM     27  C   UNL     1     -42.009  -4.446 -31.951  0.00  0.00    +0.000 A 
ATOM     28  C   UNL     1     -41.996  -5.179 -33.142  0.00  0.00    +0.000 A 
ATOM     29  C   UNL     1     -41.778  -6.555 -33.333  0.00  0.00    +0.000 A 
ATOM     30  C   UNL     1     -41.519  -7.531 -32.234  0.00  0.00    +0.000 C 
BRANCH  27  31
ATOM     31  O   UNL     1     -41.812  -5.059 -30.720  0.00  0.00    +0.000 OA
ATOM     32  H   UNL     1     -42.245  -4.728 -29.958  0.00  0.00    +0.000 HD
ENDBRANCH  27  31
ENDBRANCH  19  25
ENDBRANCH  18  19
ENDBRANCH   1  18
TORSDOF 7
ENDMDL
MODEL 3
REMARK VINA RESULT:      -5.9      1.481      2.014
REMARK  Name = ZINC000670444915
REMARK  7 active torsions:
REMARK  status: ('A' for Active; 'I' for Inactive)
REMARK    1  A    between atoms: N_1  and  C_18
REMARK    2  A    between atoms: C_2  and  C_5
REMARK    3  A    between atoms: N_9  and  C_11
REMARK    4  A    between atoms: C_11  and  C_12
REMARK    5  A    between atoms: C_18  and  C_19
REMARK    6  A    between atoms: C_19  and  C_25
REMARK    7  A    between atoms: C_27  and  O_28
REMARK                            x       y       z     vdW  Elec       q    Type
REMARK                         _______ _______ _______ _____ _____    ______ ____
ROOT
ATOM      1  N   UNL     1     -41.425 -20.824 -21.654  0.00  0.00    +0.000 N 
ATOM      2  C   UNL     1     -42.169 -21.052 -22.854  0.00  0.00    +0.000 C 
ATOM      3  O   UNL     1     -42.507 -22.222 -23.180  0.00  0.00    +0.000 OA
ATOM      4  H   UNL     1     -41.133 -19.909 -21.439  0.00  0.00    +0.000 HD
ENDROOT
BRANCH   2   5
ATOM      5  C   UNL     1     -42.591 -19.903 -23.708  0.00  0.00    +0.000 C 
ATOM      6  C   UNL     1     -43.643 -20.358 -24.728  0.00  0.00    +0.000 C 
ATOM      7  C   UNL     1     -44.788 -19.473 -24.447  0.00  0.00    +0.000 C 
ATOM      8  O   UNL     1     -45.887 -19.538 -25.056  0.00  0.00    +0.000 OA
ATOM      9  N   UNL     1     -44.533 -18.557 -23.403  0.00  0.00    +0.000 N 
ATOM     10  C   UNL     1     -43.216 -18.789 -22.849  0.00  0.00    +0.000 C 
BRANCH   9  11
ATOM     11  C   UNL     1     -45.507 -17.647 -22.820  0.00  0.00    +0.000 C 
BRANCH  11  12
ATOM     12  C   UNL     1     -45.425 -16.310 -23.473  0.00  0.00    +0.000 A 
ATOM     13  C   UNL     1     -46.256 -15.999 -24.554  0.00  0.00    +0.000 A 
ATOM     14  C   UNL     1     -46.185 -14.737 -25.146  0.00  0.00    +0.000 A 
ATOM     15  C   UNL     1     -45.286 -13.797 -24.638  0.00  0.00    +0.000 A 
ATOM     16  N   UNL     1     -44.491 -14.114 -23.580  0.00  0.00    +0.000 NA
ATOM     17  C   UNL     1     -44.544 -15.340 -22.992  0.00  0.00    +0.000 A 
ENDBRANCH  11  12
ENDBRANCH   9  11
ENDBRANCH   2   5
BRANCH   1  18
ATOM     18  C   UNL     1     -41.089 -21.906 -20.742  0.00  0.00    +0.000 C 
BRANCH  18  19
ATOM     19  C   UNL     1     -41.378 -21.489 -19.309  0.00  0.00    +0.000 C 
BRANCH  19  25
ATOM     20  C   UNL     1     -47.256 -16.629 -19.056  0.00  0.00    +0.000 C 
ATOM     21  C   UNL     1     -46.011 -17.442 -19.121  0.00  0.00    +0.000 A 
ATOM     22  S   UNL     1     -45.983 -19.117 -19.360  0.00  0.00    +0.000 S 
ATOM     23  C   UNL     1     -44.311 -19.222 -19.293  0.00  0.00    +0.000 A 
ATOM     24  N   UNL     1     -43.567 -20.347 -19.391  0.00  0.00    +0.000 NA
ATOM     25  C   UNL     1     -42.211 -20.251 -19.288  0.00  0.00    +0.000 A 
ATOM     26  N   UNL     1     -41.620 -19.037 -19.075  0.00  0.00    +0.000 NA
ATOM     27  C   UNL     1     -42.357 -17.893 -18.973  0.00  0.00    +0.000 A 
ATOM     28  C   UNL     1     -43.748 -17.978 -19.082  0.00  0.00    +0.000 A 
ATOM     29  C   UNL     1     -44.708 -16.955 -18.986  0.00  0.00    +0.000 A 
ATOM     30  C   UNL     1     -44.390 -15.516 -18.752  0.00  0.00    +0.000 C 
BRANCH  27  31
ATOM     31  O   UNL     1     -41.718 -16.678 -18.763  0.00  0.00    +0.000 OA
ATOM     32  H   UNL     1     -40.820 -16.572 -19.009  0.00  0.00    +0.000 HD
ENDBRANCH  27  31
ENDBRANCH  19  25
ENDBRANCH  18  19
ENDBRANCH   1  18
TORSDOF 7
ENDMDL
