MODEL 1
REMARK VINA RESULT:      -6.3      0.000      0.000
REMARK  Name = ZINC000023755315 ZINC23755315 CSC028219200 MCULE-8163591876 MolPort-009-162-197 PubChem-31343882
REMARK  2 active torsions:
REMARK  status: ('A' for Active; 'I' for Inactive)
REMARK    1  A    between atoms: C_1  and  C_12
REMARK    2  A    between atoms: N_3  and  C_16
REMARK                            x       y       z     vdW  Elec       q    Type
REMARK                         _______ _______ _______ _____ _____    ______ ____
ROOT
ATOM      1  C   UNL     1     -45.671 -18.483 -24.684  0.00  0.00    +0.000 C 
ATOM      2  O   UNL     1     -46.608 -19.204 -25.117  0.00  0.00    +0.000 OA
ATOM      3  N   UNL     1     -45.147 -17.454 -25.536  0.00  0.00    +0.000 N 
ATOM      4  H   UNL     1     -45.103 -17.650 -26.500  0.00  0.00    +0.000 HD
ENDROOT
BRANCH   1  12
ATOM      5  C   UNL     1     -42.464 -20.174 -19.120  0.00  0.00    +0.000 C 
ATOM      6  N   UNL     1     -43.584 -19.397 -19.622  0.00  0.00    +0.000 N 
ATOM      7  N   UNL     1     -44.403 -18.681 -18.858  0.00  0.00    +0.000 NA
ATOM      8  C   UNL     1     -45.319 -18.097 -19.671  0.00  0.00    +0.000 A 
ATOM      9  C   UNL     1     -46.418 -17.212 -19.198  0.00  0.00    +0.000 C 
ATOM     10  C   UNL     1     -45.060 -18.463 -20.975  0.00  0.00    +0.000 A 
ATOM     11  C   UNL     1     -45.662 -18.168 -22.191  0.00  0.00    +0.000 A 
ATOM     12  C   UNL     1     -45.104 -18.758 -23.347  0.00  0.00    +0.000 A 
ATOM     13  C   UNL     1     -43.959 -19.587 -23.219  0.00  0.00    +0.000 A 
ATOM     14  N   UNL     1     -43.405 -19.840 -21.994  0.00  0.00    +0.000 NA
ATOM     15  C   UNL     1     -43.972 -19.273 -20.900  0.00  0.00    +0.000 A 
ENDBRANCH   1  12
BRANCH   3  16
ATOM     16  C   UNL     1     -44.682 -16.165 -25.110  0.00  0.00    +0.000 A 
ATOM     17  C   UNL     1     -45.590 -15.144 -24.787  0.00  0.00    +0.000 A 
ATOM     18  C   UNL     1     -45.124 -13.888 -24.395  0.00  0.00    +0.000 A 
ATOM     19  C   UNL     1     -43.749 -13.629 -24.359  0.00  0.00    +0.000 A 
ATOM     20  O   UNL     1     -43.306 -12.354 -24.001  0.00  0.00    +0.000 OA
ATOM     21  C   UNL     1     -44.214 -11.250 -23.950  0.00  0.00    +0.000 C 
ATOM     22  C   UNL     1     -45.558 -11.697 -23.368  0.00  0.00    +0.000 C 
ATOM     23  O   UNL     1     -46.017 -12.875 -24.032  0.00  0.00    +0.000 OA
ATOM     24  C   UNL     1     -42.838 -14.637 -24.683  0.00  0.00    +0.000 A 
ATOM     25  C   UNL     1     -43.300 -15.902 -25.063  0.00  0.00    +0.000 A 
ATOM     26 BR   UNL     1     -42.019 -17.250 -25.505  0.00  0.00    +0.000 Br
ENDBRANCH   3  16
TORSDOF 2
ENDMDL
MODEL 2
REMARK VINA RESULT:      -5.9     13.019     15.823
REMARK  Name = ZINC000023755315 ZINC23755315 CSC028219200 MCULE-8163591876 MolPort-009-162-197 PubChem-31343882
REMARK  2 active torsions:
REMARK  status: ('A' for Active; 'I' for Inactive)
REMARK    1  A    between atoms: C_1  and  C_12
REMARK    2  A    between atoms: N_3  and  C_16
REMARK                            x       y       z     vdW  Elec       q    Type
REMARK                         _______ _______ _______ _____ _____    ______ ____
ROOT
ATOM      1  C   UNL     1     -45.946  -5.831 -34.123  0.00  0.00    +0.000 C 
ATOM      2  O   UNL     1     -46.042  -6.407 -35.239  0.00  0.00    +0.000 OA
ATOM      3  N   UNL     1     -47.064  -5.886 -33.224  0.00  0.00    +0.000 N 
ATOM      4  H   UNL     1     -47.963  -5.858 -33.626  0.00  0.00    +0.000 HD
ENDROOT
BRANCH   1  12
ATOM      5  C   UNL     1     -39.974  -3.157 -32.994  0.00  0.00    +0.000 C 
ATOM      6  N   UNL     1     -41.398  -2.873 -32.951  0.00  0.00    +0.000 N 
ATOM      7  N   UNL     1     -41.920  -1.709 -32.577  0.00  0.00    +0.000 NA
ATOM      8  C   UNL     1     -43.270  -1.818 -32.663  0.00  0.00    +0.000 A 
ATOM      9  C   UNL     1     -44.223  -0.725 -32.326  0.00  0.00    +0.000 C 
ATOM     10  C   UNL     1     -43.591  -3.085 -33.104  0.00  0.00    +0.000 A 
ATOM     11  C   UNL     1     -44.791  -3.732 -33.367  0.00  0.00    +0.000 A 
ATOM     12  C   UNL     1     -44.719  -5.073 -33.802  0.00  0.00    +0.000 A 
ATOM     13  C   UNL     1     -43.447  -5.679 -33.973  0.00  0.00    +0.000 A 
ATOM     14  N   UNL     1     -42.296  -4.991 -33.701  0.00  0.00    +0.000 NA
ATOM     15  C   UNL     1     -42.397  -3.709 -33.269  0.00  0.00    +0.000 A 
ENDBRANCH   1  12
BRANCH   3  16
ATOM     16  C   UNL     1     -46.990  -5.978 -31.795  0.00  0.00    +0.000 A 
ATOM     17  C   UNL     1     -47.253  -4.859 -30.988  0.00  0.00    +0.000 A 
ATOM     18  C   UNL     1     -47.156  -4.956 -29.599  0.00  0.00    +0.000 A 
ATOM     19  C   UNL     1     -46.759  -6.160 -29.006  0.00  0.00    +0.000 A 
ATOM     20  O   UNL     1     -46.632  -6.224 -27.616  0.00  0.00    +0.000 OA
ATOM     21  C   UNL     1     -46.620  -5.032 -26.825  0.00  0.00    +0.000 C 
ATOM     22  C   UNL     1     -47.632  -4.023 -27.374  0.00  0.00    +0.000 C 
ATOM     23  O   UNL     1     -47.454  -3.860 -28.783  0.00  0.00    +0.000 OA
ATOM     24  C   UNL     1     -46.492  -7.277 -29.799  0.00  0.00    +0.000 A 
ATOM     25  C   UNL     1     -46.602  -7.189 -31.191  0.00  0.00    +0.000 A 
ATOM     26 BR   UNL     1     -46.219  -8.740 -32.241  0.00  0.00    +0.000 Br
ENDBRANCH   3  16
TORSDOF 2
ENDMDL
MODEL 3
REMARK VINA RESULT:      -5.7     11.894     15.490
REMARK  Name = ZINC000023755315 ZINC23755315 CSC028219200 MCULE-8163591876 MolPort-009-162-197 PubChem-31343882
REMARK  2 active torsions:
REMARK  status: ('A' for Active; 'I' for Inactive)
REMARK    1  A    between atoms: C_1  and  C_12
REMARK    2  A    between atoms: N_3  and  C_16
REMARK                            x       y       z     vdW  Elec       q    Type
REMARK                         _______ _______ _______ _____ _____    ______ ____
ROOT
ATOM      1  C   UNL     1     -46.241  -6.253 -34.034  0.00  0.00    +0.000 C 
ATOM      2  O   UNL     1     -46.225  -6.645 -35.230  0.00  0.00    +0.000 OA
ATOM      3  N   UNL     1     -47.003  -7.003 -33.076  0.00  0.00    +0.000 N 
ATOM      4  H   UNL     1     -47.847  -7.402 -33.390  0.00  0.00    +0.000 HD
ENDROOT
BRANCH   1  12
ATOM      5  C   UNL     1     -43.876  -0.263 -32.416  0.00  0.00    +0.000 C 
ATOM      6  N   UNL     1     -43.490  -1.652 -32.594  0.00  0.00    +0.000 N 
ATOM      7  N   UNL     1     -42.257  -2.117 -32.419  0.00  0.00    +0.000 NA
ATOM      8  C   UNL     1     -42.280  -3.449 -32.673  0.00  0.00    +0.000 A 
ATOM      9  C   UNL     1     -41.091  -4.340 -32.590  0.00  0.00    +0.000 C 
ATOM     10  C   UNL     1     -43.564  -3.819 -33.014  0.00  0.00    +0.000 A 
ATOM     11  C   UNL     1     -44.152  -5.027 -33.365  0.00  0.00    +0.000 A 
ATOM     12  C   UNL     1     -45.531  -5.009 -33.669  0.00  0.00    +0.000 A 
ATOM     13  C   UNL     1     -46.245  -3.786 -33.579  0.00  0.00    +0.000 A 
ATOM     14  N   UNL     1     -45.613  -2.625 -33.225  0.00  0.00    +0.000 NA
ATOM     15  C   UNL     1     -44.285  -2.670 -32.954  0.00  0.00    +0.000 A 
ENDBRANCH   1  12
BRANCH   3  16
ATOM     16  C   UNL     1     -46.647  -7.223 -31.704  0.00  0.00    +0.000 A 
ATOM     17  C   UNL     1     -46.813  -6.209 -30.747  0.00  0.00    +0.000 A 
ATOM     18  C   UNL     1     -46.441  -6.429 -29.419  0.00  0.00    +0.000 A 
ATOM     19  C   UNL     1     -45.866  -7.648 -29.044  0.00  0.00    +0.000 A 
ATOM     20  O   UNL     1     -45.467  -7.832 -27.718  0.00  0.00    +0.000 OA
ATOM     21  C   UNL     1     -45.372  -6.723 -26.820  0.00  0.00    +0.000 C 
ATOM     22  C   UNL     1     -46.529  -5.750 -27.058  0.00  0.00    +0.000 C 
ATOM     23  O   UNL     1     -46.639  -5.442 -28.449  0.00  0.00    +0.000 OA
ATOM     24  C   UNL     1     -45.692  -8.661 -29.989  0.00  0.00    +0.000 A 
ATOM     25  C   UNL     1     -46.077  -8.451 -31.318  0.00  0.00    +0.000 A 
ATOM     26 BR   UNL     1     -45.814  -9.861 -32.581  0.00  0.00    +0.000 Br
ENDBRANCH   3  16
TORSDOF 2
ENDMDL
