MODEL 1
REMARK VINA RESULT:      -7.5      0.000      0.000
REMARK  Name = ZINC000020135693 ZINC20135693 PubChem-92655552
REMARK  3 active torsions:
REMARK  status: ('A' for Active; 'I' for Inactive)
REMARK    1  A    between atoms: C_5  and  C_8
REMARK    2  A    between atoms: C_12  and  C_13
REMARK    3  A    between atoms: C_17  and  O_22
REMARK                            x       y       z     vdW  Elec       q    Type
REMARK                         _______ _______ _______ _____ _____    ______ ____
ROOT
ATOM      1  C   UNL     1     -47.086  -4.129 -30.475  0.00  0.00    +0.000 C 
ATOM      2  C   UNL     1     -47.347  -5.583 -30.893  0.00  0.00    +0.000 C 
ATOM      3  C   UNL     1     -46.700  -6.539 -29.943  0.00  0.00    +0.000 C 
ATOM      4  C   UNL     1     -46.884  -4.850 -28.145  0.00  0.00    +0.000 C 
ATOM      5  C   UNL     1     -47.239  -3.300 -26.145  0.00  0.00    +0.000 C 
ATOM      6  O   UNL     1     -46.324  -7.670 -30.341  0.00  0.00    +0.000 OA
ATOM      7  O   UNL     1     -47.509  -2.301 -26.867  0.00  0.00    +0.000 OA
ATOM      8  N   UNL     1     -46.537  -6.167 -28.577  0.00  0.00    +0.000 NA
ATOM      9  N   UNL     1     -47.169  -3.929 -29.021  0.00  0.00    +0.000 NA
ATOM     10  N   UNL     1     -46.924  -4.567 -26.742  0.00  0.00    +0.000 NA
ENDROOT
BRANCH   1  15
ATOM     11  C   UNL     1     -42.092  -2.099 -32.578  0.00  0.00    +0.000 C 
ATOM     12  C   UNL     1     -43.371  -2.628 -32.036  0.00  0.00    +0.000 A 
ATOM     13  C   UNL     1     -43.499  -3.990 -31.754  0.00  0.00    +0.000 A 
ATOM     14  C   UNL     1     -44.701  -4.488 -31.244  0.00  0.00    +0.000 A 
ATOM     15  C   UNL     1     -45.781  -3.623 -31.012  0.00  0.00    +0.000 A 
ATOM     16  C   UNL     1     -45.648  -2.260 -31.301  0.00  0.00    +0.000 A 
ATOM     17  C   UNL     1     -44.445  -1.763 -31.811  0.00  0.00    +0.000 A 
ENDBRANCH   1  15
BRANCH   5  18
ATOM     18  C   UNL     1     -47.247  -3.165 -24.677  0.00  0.00    +0.000 A 
ATOM     19  C   UNL     1     -47.257  -1.895 -24.081  0.00  0.00    +0.000 A 
ATOM     20  C   UNL     1     -47.264  -1.770 -22.690  0.00  0.00    +0.000 A 
ATOM     21  C   UNL     1     -47.260  -2.911 -21.884  0.00  0.00    +0.000 A 
ATOM     22  C   UNL     1     -47.250  -4.184 -22.462  0.00  0.00    +0.000 A 
ATOM     23  C   UNL     1     -47.243  -4.305 -23.862  0.00  0.00    +0.000 A 
BRANCH  22  25
ATOM     24  C   UNL     1     -46.133  -5.658 -20.820  0.00  0.00    +0.000 C 
ATOM     25  O   UNL     1     -47.247  -5.306 -21.630  0.00  0.00    +0.000 OA
ENDBRANCH  22  25
ENDBRANCH   5  18
TORSDOF 3
ENDMDL
MODEL 2
REMARK VINA RESULT:      -7.3      2.437      3.215
REMARK  Name = ZINC000020135693 ZINC20135693 PubChem-92655552
REMARK  3 active torsions:
REMARK  status: ('A' for Active; 'I' for Inactive)
REMARK    1  A    between atoms: C_5  and  C_8
REMARK    2  A    between atoms: C_12  and  C_13
REMARK    3  A    between atoms: C_17  and  O_22
REMARK                            x       y       z     vdW  Elec       q    Type
REMARK                         _______ _______ _______ _____ _____    ______ ____
ROOT
ATOM      1  C   UNL     1     -46.647  -2.979 -32.332  0.00  0.00    +0.000 C 
ATOM      2  C   UNL     1     -46.964  -3.993 -33.439  0.00  0.00    +0.000 C 
ATOM      3  C   UNL     1     -46.354  -5.324 -33.139  0.00  0.00    +0.000 C 
ATOM      4  C   UNL     1     -46.470  -4.812 -30.721  0.00  0.00    +0.000 C 
ATOM      5  C   UNL     1     -46.764  -4.520 -28.200  0.00  0.00    +0.000 C 
ATOM      6  O   UNL     1     -46.022  -6.095 -34.075  0.00  0.00    +0.000 OA
ATOM      7  O   UNL     1     -46.995  -3.282 -28.292  0.00  0.00    +0.000 OA
ATOM      8  N   UNL     1     -46.175  -5.724 -31.782  0.00  0.00    +0.000 NA
ATOM      9  N   UNL     1     -46.720  -3.562 -30.985  0.00  0.00    +0.000 NA
ATOM     10  N   UNL     1     -46.498  -5.300 -29.375  0.00  0.00    +0.000 NA
ENDROOT
BRANCH   1  15
ATOM     11  C   UNL     1     -41.572  -0.321 -33.151  0.00  0.00    +0.000 C 
ATOM     12  C   UNL     1     -42.873  -1.010 -32.945  0.00  0.00    +0.000 A 
ATOM     13  C   UNL     1     -43.195  -2.134 -33.709  0.00  0.00    +0.000 A 
ATOM     14  C   UNL     1     -44.418  -2.783 -33.516  0.00  0.00    +0.000 A 
ATOM     15  C   UNL     1     -45.324  -2.309 -32.555  0.00  0.00    +0.000 A 
ATOM     16  C   UNL     1     -44.997  -1.180 -31.796  0.00  0.00    +0.000 A 
ATOM     17  C   UNL     1     -43.774  -0.532 -31.989  0.00  0.00    +0.000 A 
ENDBRANCH   1  15
BRANCH   5  18
ATOM     18  C   UNL     1     -46.764  -5.167 -26.876  0.00  0.00    +0.000 A 
ATOM     19  C   UNL     1     -47.200  -4.466 -25.743  0.00  0.00    +0.000 A 
ATOM     20  C   UNL     1     -47.200  -5.083 -24.489  0.00  0.00    +0.000 A 
ATOM     21  C   UNL     1     -46.763  -6.404 -24.358  0.00  0.00    +0.000 A 
ATOM     22  C   UNL     1     -46.325  -7.116 -25.479  0.00  0.00    +0.000 A 
ATOM     23  C   UNL     1     -46.328  -6.492 -26.737  0.00  0.00    +0.000 A 
BRANCH  22  25
ATOM     24  C   UNL     1     -46.756  -9.552 -25.497  0.00  0.00    +0.000 C 
ATOM     25  O   UNL     1     -45.895  -8.436 -25.316  0.00  0.00    +0.000 OA
ENDBRANCH  22  25
ENDBRANCH   5  18
TORSDOF 3
ENDMDL
MODEL 3
REMARK VINA RESULT:      -7.0      1.506      2.145
REMARK  Name = ZINC000020135693 ZINC20135693 PubChem-92655552
REMARK  3 active torsions:
REMARK  status: ('A' for Active; 'I' for Inactive)
REMARK    1  A    between atoms: C_5  and  C_8
REMARK    2  A    between atoms: C_12  and  C_13
REMARK    3  A    between atoms: C_17  and  O_22
REMARK                            x       y       z     vdW  Elec       q    Type
REMARK                         _______ _______ _______ _____ _____    ______ ____
ROOT
ATOM      1  C   UNL     1     -47.093  -4.923 -31.095  0.00  0.00    +0.000 C 
ATOM      2  C   UNL     1     -46.769  -6.289 -31.716  0.00  0.00    +0.000 C 
ATOM      3  C   UNL     1     -45.657  -6.963 -30.980  0.00  0.00    +0.000 C 
ATOM      4  C   UNL     1     -46.292  -5.733 -28.930  0.00  0.00    +0.000 C 
ATOM      5  C   UNL     1     -46.994  -4.726 -26.689  0.00  0.00    +0.000 C 
ATOM      6  O   UNL     1     -44.895  -7.765 -31.578  0.00  0.00    +0.000 OA
ATOM      7  O   UNL     1     -47.756  -3.873 -27.223  0.00  0.00    +0.000 OA
ATOM      8  N   UNL     1     -45.482  -6.710 -29.588  0.00  0.00    +0.000 NA
ATOM      9  N   UNL     1     -47.055  -4.941 -29.626  0.00  0.00    +0.000 NA
ATOM     10  N   UNL     1     -46.257  -5.653 -27.500  0.00  0.00    +0.000 NA
ENDROOT
BRANCH   1  15
ATOM     11  C   UNL     1     -43.671  -0.801 -33.280  0.00  0.00    +0.000 C 
ATOM     12  C   UNL     1     -44.551  -1.855 -32.711  0.00  0.00    +0.000 A 
ATOM     13  C   UNL     1     -44.875  -1.835 -31.352  0.00  0.00    +0.000 A 
ATOM     14  C   UNL     1     -45.703  -2.826 -30.817  0.00  0.00    +0.000 A 
ATOM     15  C   UNL     1     -46.211  -3.842 -31.642  0.00  0.00    +0.000 A 
ATOM     16  C   UNL     1     -45.879  -3.859 -33.001  0.00  0.00    +0.000 A 
ATOM     17  C   UNL     1     -45.051  -2.867 -33.535  0.00  0.00    +0.000 A 
ENDBRANCH   1  15
BRANCH   5  18
ATOM     18  C   UNL     1     -46.858  -4.769 -25.222  0.00  0.00    +0.000 A 
ATOM     19  C   UNL     1     -46.282  -5.883 -24.594  0.00  0.00    +0.000 A 
ATOM     20  C   UNL     1     -46.155  -5.921 -23.203  0.00  0.00    +0.000 A 
ATOM     21  C   UNL     1     -46.603  -4.847 -22.430  0.00  0.00    +0.000 A 
ATOM     22  C   UNL     1     -47.179  -3.729 -23.040  0.00  0.00    +0.000 A 
ATOM     23  C   UNL     1     -47.305  -3.696 -24.439  0.00  0.00    +0.000 A 
BRANCH  22  25
ATOM     24  C   UNL     1     -46.820  -2.111 -21.205  0.00  0.00    +0.000 C 
ATOM     25  O   UNL     1     -47.617  -2.671 -22.239  0.00  0.00    +0.000 OA
ENDBRANCH  22  25
ENDBRANCH   5  18
TORSDOF 3
ENDMDL
