MODEL 1
REMARK VINA RESULT:      -5.5      0.000      0.000
REMARK  Name = ZINC000585168577 PubChem-110087557
REMARK  8 active torsions:
REMARK  status: ('A' for Active; 'I' for Inactive)
REMARK    1  A    between atoms: C_2  and  N_24
REMARK    2  A    between atoms: C_3  and  C_17
REMARK    3  A    between atoms: C_4  and  C_7
REMARK    4  A    between atoms: C_8  and  C_9
REMARK    5  A    between atoms: C_8  and  N_25
REMARK    6  A    between atoms: C_14  and  C_15
REMARK    7  A    between atoms: C_15  and  O_28
REMARK    8  A    between atoms: C_20  and  O_29
REMARK                            x       y       z     vdW  Elec       q    Type
REMARK                         _______ _______ _______ _____ _____    ______ ____
ROOT
ATOM      1  C   UNL     1     -45.840 -15.406 -22.815  0.00  0.00    +0.000 C 
ATOM      2  C   UNL     1     -45.470 -14.445 -21.671  0.00  0.00    +0.000 C 
ATOM      3  C   UNL     1     -45.118 -13.090 -22.292  0.00  0.00    +0.000 C 
ATOM      4  C   UNL     1     -45.164 -13.370 -23.741  0.00  0.00    +0.000 C 
ATOM      5  N   UNL     1     -45.522 -14.704 -24.045  0.00  0.00    +0.000 N 
ATOM      6  O   UNL     1     -44.932 -12.503 -24.624  0.00  0.00    +0.000 OA
ENDROOT
BRANCH   1   7
ATOM      7  C   UNL     1     -45.075 -16.690 -22.713  0.00  0.00    +0.000 A 
ATOM      8  C   UNL     1     -45.720 -17.894 -23.011  0.00  0.00    +0.000 A 
ATOM      9  C   UNL     1     -45.026 -19.103 -22.926  0.00  0.00    +0.000 A 
ATOM     10  C   UNL     1     -43.681 -19.122 -22.541  0.00  0.00    +0.000 A 
ATOM     11  C   UNL     1     -43.033 -17.912 -22.243  0.00  0.00    +0.000 A 
ATOM     12  C   UNL     1     -43.726 -16.703 -22.328  0.00  0.00    +0.000 A 
BRANCH  10  14
ATOM     13  C   UNL     1     -42.265 -20.883 -23.547  0.00  0.00    +0.000 C 
ATOM     14  O   UNL     1     -43.016 -20.348 -22.465  0.00  0.00    +0.000 OA
ENDBRANCH  10  14
ENDBRANCH   1   7
BRANCH   2  15
ATOM     15  C   UNL     1     -46.572 -14.326 -20.660  0.00  0.00    +0.000 C 
ATOM     16  N   UNL     1     -46.466 -14.865 -19.337  0.00  0.00    +0.000 NA
ATOM     17  O   UNL     1     -47.634 -13.740 -20.996  0.00  0.00    +0.000 OA
BRANCH  16  18
ATOM     18  C   UNL     1     -45.268 -15.506 -18.822  0.00  0.00    +0.000 C 
BRANCH  18  19
ATOM     19  C   UNL     1     -45.367 -16.985 -18.990  0.00  0.00    +0.000 A 
ATOM     20  C   UNL     1     -46.592 -17.540 -19.377  0.00  0.00    +0.000 A 
ATOM     21  C   UNL     1     -46.716 -18.921 -19.552  0.00  0.00    +0.000 A 
ATOM     22  C   UNL     1     -45.613 -19.753 -19.344  0.00  0.00    +0.000 A 
ATOM     23  C   UNL     1     -44.385 -19.204 -18.964  0.00  0.00    +0.000 A 
ATOM     24  C   UNL     1     -44.251 -17.822 -18.794  0.00  0.00    +0.000 A 
BRANCH  24  25
ATOM     25  C   UNL     1     -42.927 -17.273 -18.373  0.00  0.00    +0.000 C 
BRANCH  25  27
ATOM     26  C   UNL     1     -41.051 -17.776 -17.332  0.00  0.00    +0.000 C 
ATOM     27  O   UNL     1     -42.423 -18.019 -17.308  0.00  0.00    +0.000 OA
ENDBRANCH  25  27
ENDBRANCH  24  25
ENDBRANCH  18  19
ENDBRANCH  16  18
ENDBRANCH   2  15
BRANCH   5  29
ATOM     28  C   UNL     1     -44.898 -15.651 -26.195  0.00  0.00    +0.000 C 
ATOM     29  C   UNL     1     -46.034 -15.118 -25.343  0.00  0.00    +0.000 C 
ENDBRANCH   5  29
TORSDOF 8
ENDMDL
MODEL 2
REMARK VINA RESULT:      -5.2     11.719     16.295
REMARK  Name = ZINC000585168577 PubChem-110087557
REMARK  8 active torsions:
REMARK  status: ('A' for Active; 'I' for Inactive)
REMARK    1  A    between atoms: C_2  and  N_24
REMARK    2  A    between atoms: C_3  and  C_17
REMARK    3  A    between atoms: C_4  and  C_7
REMARK    4  A    between atoms: C_8  and  C_9
REMARK    5  A    between atoms: C_8  and  N_25
REMARK    6  A    between atoms: C_14  and  C_15
REMARK    7  A    between atoms: C_15  and  O_28
REMARK    8  A    between atoms: C_20  and  O_29
REMARK                            x       y       z     vdW  Elec       q    Type
REMARK                         _______ _______ _______ _____ _____    ______ ____
ROOT
ATOM      1  C   UNL     1     -44.353  -6.271 -29.591  0.00  0.00    +0.000 C 
ATOM      2  C   UNL     1     -45.888  -6.297 -29.690  0.00  0.00    +0.000 C 
ATOM      3  C   UNL     1     -46.367  -7.668 -29.203  0.00  0.00    +0.000 C 
ATOM      4  C   UNL     1     -45.104  -8.400 -28.984  0.00  0.00    +0.000 C 
ATOM      5  N   UNL     1     -43.951  -7.626 -29.257  0.00  0.00    +0.000 N 
ATOM      6  O   UNL     1     -45.052  -9.588 -28.573  0.00  0.00    +0.000 OA
ENDROOT
BRANCH   1   7
ATOM      7  C   UNL     1     -43.734  -5.828 -30.880  0.00  0.00    +0.000 A 
ATOM      8  C   UNL     1     -42.666  -4.927 -30.849  0.00  0.00    +0.000 A 
ATOM      9  C   UNL     1     -42.071  -4.500 -32.040  0.00  0.00    +0.000 A 
ATOM     10  C   UNL     1     -42.538  -4.970 -33.272  0.00  0.00    +0.000 A 
ATOM     11  C   UNL     1     -43.610  -5.877 -33.303  0.00  0.00    +0.000 A 
ATOM     12  C   UNL     1     -44.205  -6.303 -32.113  0.00  0.00    +0.000 A 
BRANCH  10  14
ATOM     13  C   UNL     1     -40.601  -4.902 -34.809  0.00  0.00    +0.000 C 
ATOM     14  O   UNL     1     -41.921  -4.524 -34.444  0.00  0.00    +0.000 OA
ENDBRANCH  10  14
ENDBRANCH   1   7
BRANCH   2  15
ATOM     15  C   UNL     1     -46.520  -5.178 -28.915  0.00  0.00    +0.000 C 
ATOM     16  N   UNL     1     -47.264  -4.128 -29.544  0.00  0.00    +0.000 NA
ATOM     17  O   UNL     1     -46.375  -5.157 -27.665  0.00  0.00    +0.000 OA
BRANCH  16  18
ATOM     18  C   UNL     1     -47.546  -4.083 -30.970  0.00  0.00    +0.000 C 
BRANCH  18  19
ATOM     19  C   UNL     1     -46.499  -3.284 -31.672  0.00  0.00    +0.000 A 
ATOM     20  C   UNL     1     -45.596  -2.535 -30.909  0.00  0.00    +0.000 A 
ATOM     21  C   UNL     1     -44.600  -1.783 -31.535  0.00  0.00    +0.000 A 
ATOM     22  C   UNL     1     -44.499  -1.778 -32.929  0.00  0.00    +0.000 A 
ATOM     23  C   UNL     1     -45.394  -2.529 -33.696  0.00  0.00    +0.000 A 
ATOM     24  C   UNL     1     -46.390  -3.291 -33.076  0.00  0.00    +0.000 A 
BRANCH  24  25
ATOM     25  C   UNL     1     -47.337  -4.070 -33.929  0.00  0.00    +0.000 C 
BRANCH  25  27
ATOM     26  C   UNL     1     -46.886  -5.738 -35.297  0.00  0.00    +0.000 C 
ATOM     27  O   UNL     1     -46.966  -5.414 -33.944  0.00  0.00    +0.000 OA
ENDBRANCH  25  27
ENDBRANCH  24  25
ENDBRANCH  18  19
ENDBRANCH  16  18
ENDBRANCH   2  15
BRANCH   5  29
ATOM     28  C   UNL     1     -42.213  -6.916 -27.715  0.00  0.00    +0.000 C 
ATOM     29  C   UNL     1     -42.630  -7.952 -28.740  0.00  0.00    +0.000 C 
ENDBRANCH   5  29
TORSDOF 8
ENDMDL
MODEL 3
REMARK VINA RESULT:      -5.2      2.134      4.976
REMARK  Name = ZINC000585168577 PubChem-110087557
REMARK  8 active torsions:
REMARK  status: ('A' for Active; 'I' for Inactive)
REMARK    1  A    between atoms: C_2  and  N_24
REMARK    2  A    between atoms: C_3  and  C_17
REMARK    3  A    between atoms: C_4  and  C_7
REMARK    4  A    between atoms: C_8  and  C_9
REMARK    5  A    between atoms: C_8  and  N_25
REMARK    6  A    between atoms: C_14  and  C_15
REMARK    7  A    between atoms: C_15  and  O_28
REMARK    8  A    between atoms: C_20  and  O_29
REMARK                            x       y       z     vdW  Elec       q    Type
REMARK                         _______ _______ _______ _____ _____    ______ ____
ROOT
ATOM      1  C   UNL     1     -45.611 -15.460 -21.209  0.00  0.00    +0.000 C 
ATOM      2  C   UNL     1     -44.665 -16.425 -20.473  0.00  0.00    +0.000 C 
ATOM      3  C   UNL     1     -44.051 -15.671 -19.290  0.00  0.00    +0.000 C 
ATOM      4  C   UNL     1     -44.555 -14.296 -19.479  0.00  0.00    +0.000 C 
ATOM      5  N   UNL     1     -45.400 -14.156 -20.604  0.00  0.00    +0.000 N 
ATOM      6  O   UNL     1     -44.279 -13.343 -18.704  0.00  0.00    +0.000 OA
ENDROOT
BRANCH   1   7
ATOM      7  C   UNL     1     -45.317 -15.426 -22.677  0.00  0.00    +0.000 A 
ATOM      8  C   UNL     1     -44.000 -15.601 -23.112  0.00  0.00    +0.000 A 
ATOM      9  C   UNL     1     -43.701 -15.575 -24.477  0.00  0.00    +0.000 A 
ATOM     10  C   UNL     1     -44.715 -15.375 -25.420  0.00  0.00    +0.000 A 
ATOM     11  C   UNL     1     -46.039 -15.201 -24.982  0.00  0.00    +0.000 A 
ATOM     12  C   UNL     1     -46.338 -15.226 -23.618  0.00  0.00    +0.000 A 
BRANCH  10  14
ATOM     13  C   UNL     1     -43.047 -15.212 -27.239  0.00  0.00    +0.000 C 
ATOM     14  O   UNL     1     -44.383 -15.354 -26.777  0.00  0.00    +0.000 OA
ENDBRANCH  10  14
ENDBRANCH   1   7
BRANCH   2  15
ATOM     15  C   UNL     1     -45.369 -17.675 -20.034  0.00  0.00    +0.000 C 
ATOM     16  N   UNL     1     -44.994 -18.976 -20.501  0.00  0.00    +0.000 NA
ATOM     17  O   UNL     1     -46.336 -17.570 -19.235  0.00  0.00    +0.000 OA
BRANCH  16  18
ATOM     18  C   UNL     1     -43.858 -19.222 -21.374  0.00  0.00    +0.000 C 
BRANCH  18  19
ATOM     19  C   UNL     1     -44.322 -19.361 -22.786  0.00  0.00    +0.000 A 
ATOM     20  C   UNL     1     -45.543 -18.787 -23.156  0.00  0.00    +0.000 A 
ATOM     21  C   UNL     1     -46.001 -18.892 -24.472  0.00  0.00    +0.000 A 
ATOM     22  C   UNL     1     -45.237 -19.570 -25.426  0.00  0.00    +0.000 A 
ATOM     23  C   UNL     1     -44.013 -20.140 -25.064  0.00  0.00    +0.000 A 
ATOM     24  C   UNL     1     -43.544 -20.032 -23.750  0.00  0.00    +0.000 A 
BRANCH  24  25
ATOM     25  C   UNL     1     -42.239 -20.666 -23.398  0.00  0.00    +0.000 C 
BRANCH  25  27
ATOM     26  C   UNL     1     -41.455 -22.304 -22.147  0.00  0.00    +0.000 C 
ATOM     27  O   UNL     1     -42.433 -22.014 -23.097  0.00  0.00    +0.000 OA
ENDBRANCH  25  27
ENDBRANCH  24  25
ENDBRANCH  18  19
ENDBRANCH  16  18
ENDBRANCH   2  15
BRANCH   5  29
ATOM     28  C   UNL     1     -47.660 -13.401 -20.128  0.00  0.00    +0.000 C 
ATOM     29  C   UNL     1     -46.332 -13.051 -20.770  0.00  0.00    +0.000 C 
ENDBRANCH   5  29
TORSDOF 8
ENDMDL
