MODEL 1
REMARK VINA RESULT:      -6.2      0.000      0.000
REMARK  Name = ZINC000004878453 PubChem-92237773
REMARK  9 active torsions:
REMARK  status: ('A' for Active; 'I' for Inactive)
REMARK    1  A    between atoms: N_17  and  C_20
REMARK    2  A    between atoms: C_20  and  C_21
REMARK    3  A    between atoms: C_21  and  O_22
REMARK    4  A    between atoms: C_21  and  C_24
REMARK    5  A    between atoms: C_24  and  O_25
REMARK    6  A    between atoms: C_24  and  C_27
REMARK    7  A    between atoms: C_27  and  O_28
REMARK    8  A    between atoms: C_27  and  C_30
REMARK    9  A    between atoms: C_30  and  O_31
REMARK                            x       y       z     vdW  Elec       q    Type
REMARK                         _______ _______ _______ _____ _____    ______ ____
ROOT
ATOM      1  C   UNL     1     -47.386 -13.455 -20.324  0.00  0.00    +0.000 C 
ATOM      2  C   UNL     1     -46.674 -14.764 -20.369  0.00  0.00    +0.000 A 
ATOM      3  C   UNL     1     -46.490 -15.541 -19.213  0.00  0.00    +0.000 A 
ATOM      4  C   UNL     1     -45.816 -16.762 -19.297  0.00  0.00    +0.000 A 
ATOM      5  C   UNL     1     -45.313 -17.234 -20.523  0.00  0.00    +0.000 A 
ATOM      6  C   UNL     1     -45.512 -16.441 -21.683  0.00  0.00    +0.000 A 
ATOM      7  C   UNL     1     -46.185 -15.220 -21.596  0.00  0.00    +0.000 A 
ATOM      8  C   UNL     1     -45.046 -16.870 -22.922  0.00  0.00    +0.000 A 
ATOM      9  C   UNL     1     -44.384 -18.087 -23.023  0.00  0.00    +0.000 A 
ATOM     10  C   UNL     1     -43.890 -18.592 -24.227  0.00  0.00    +0.000 A 
ATOM     11  O   UNL     1     -44.022 -17.948 -25.302  0.00  0.00    +0.000 OA
ATOM     12  N   UNL     1     -43.259 -19.796 -24.240  0.00  0.00    +0.000 N 
ATOM     13  C   UNL     1     -43.088 -20.536 -23.110  0.00  0.00    +0.000 A 
ATOM     14  O   UNL     1     -42.497 -21.645 -23.175  0.00  0.00    +0.000 OA
ATOM     15  N   UNL     1     -43.549 -20.089 -21.912  0.00  0.00    +0.000 NA
ATOM     16  C   UNL     1     -44.191 -18.895 -21.805  0.00  0.00    +0.000 A 
ATOM     17  N   UNL     1     -44.645 -18.435 -20.600  0.00  0.00    +0.000 N 
ATOM     18  C   UNL     1     -46.998 -15.095 -17.884  0.00  0.00    +0.000 C 
ATOM     19  H   UNL     1     -42.914 -20.143 -25.094  0.00  0.00    +0.000 HD
ENDROOT
BRANCH  17  20
ATOM     20  C   UNL     1     -44.434 -19.257 -19.402  0.00  0.00    +0.000 C 
BRANCH  20  21
ATOM     21  C   UNL     1     -42.980 -19.215 -18.933  0.00  0.00    +0.000 C 
BRANCH  21  22
ATOM     22  O   UNL     1     -42.810 -18.084 -18.134  0.00  0.00    +0.000 OA
ATOM     23  H   UNL     1     -43.535 -17.461 -18.295  0.00  0.00    +0.000 HD
ENDBRANCH  21  22
BRANCH  21  24
ATOM     24  C   UNL     1     -42.602 -20.477 -18.149  0.00  0.00    +0.000 C 
BRANCH  24  25
ATOM     25  O   UNL     1     -43.543 -21.487 -18.372  0.00  0.00    +0.000 OA
ATOM     26  H   UNL     1     -43.188 -22.124 -19.013  0.00  0.00    +0.000 HD
ENDBRANCH  24  25
BRANCH  24  27
ATOM     27  C   UNL     1     -41.207 -20.976 -18.530  0.00  0.00    +0.000 C 
BRANCH  27  28
ATOM     28  O   UNL     1     -40.591 -20.086 -19.413  0.00  0.00    +0.000 OA
ATOM     29  H   UNL     1     -39.637 -20.061 -19.234  0.00  0.00    +0.000 HD
ENDBRANCH  27  28
BRANCH  27  30
ATOM     30  C   UNL     1     -41.296 -22.356 -19.159  0.00  0.00    +0.000 C 
BRANCH  30  31
ATOM     31  O   UNL     1     -41.815 -22.256 -20.450  0.00  0.00    +0.000 OA
ATOM     32  H   UNL     1     -41.668 -21.359 -20.788  0.00  0.00    +0.000 HD
ENDBRANCH  30  31
ENDBRANCH  27  30
ENDBRANCH  24  27
ENDBRANCH  21  24
ENDBRANCH  20  21
ENDBRANCH  17  20
TORSDOF 9
ENDMDL
MODEL 2
REMARK VINA RESULT:      -6.1     12.610     16.280
REMARK  Name = ZINC000004878453 PubChem-92237773
REMARK  9 active torsions:
REMARK  status: ('A' for Active; 'I' for Inactive)
REMARK    1  A    between atoms: N_17  and  C_20
REMARK    2  A    between atoms: C_20  and  C_21
REMARK    3  A    between atoms: C_21  and  O_22
REMARK    4  A    between atoms: C_21  and  C_24
REMARK    5  A    between atoms: C_24  and  O_25
REMARK    6  A    between atoms: C_24  and  C_27
REMARK    7  A    between atoms: C_27  and  O_28
REMARK    8  A    between atoms: C_27  and  C_30
REMARK    9  A    between atoms: C_30  and  O_31
REMARK                            x       y       z     vdW  Elec       q    Type
REMARK                         _______ _______ _______ _____ _____    ______ ____
ROOT
ATOM      1  C   UNL     1     -47.344  -2.731 -23.197  0.00  0.00    +0.000 C 
ATOM      2  C   UNL     1     -47.220  -3.450 -24.497  0.00  0.00    +0.000 A 
ATOM      3  C   UNL     1     -47.402  -2.790 -25.724  0.00  0.00    +0.000 A 
ATOM      4  C   UNL     1     -47.279  -3.500 -26.920  0.00  0.00    +0.000 A 
ATOM      5  C   UNL     1     -46.977  -4.874 -26.923  0.00  0.00    +0.000 A 
ATOM      6  C   UNL     1     -46.790  -5.526 -25.677  0.00  0.00    +0.000 A 
ATOM      7  C   UNL     1     -46.915  -4.814 -24.482  0.00  0.00    +0.000 A 
ATOM      8  C   UNL     1     -46.476  -6.882 -25.627  0.00  0.00    +0.000 A 
ATOM      9  C   UNL     1     -46.340  -7.599 -26.809  0.00  0.00    +0.000 A 
ATOM     10  C   UNL     1     -46.022  -8.957 -26.847  0.00  0.00    +0.000 A 
ATOM     11  O   UNL     1     -45.845  -9.611 -25.785  0.00  0.00    +0.000 OA
ATOM     12  N   UNL     1     -45.901  -9.583 -28.048  0.00  0.00    +0.000 N 
ATOM     13  C   UNL     1     -46.081  -8.928 -29.228  0.00  0.00    +0.000 A 
ATOM     14  O   UNL     1     -45.957  -9.554 -30.312  0.00  0.00    +0.000 OA
ATOM     15  N   UNL     1     -46.393  -7.605 -29.246  0.00  0.00    +0.000 NA
ATOM     16  C   UNL     1     -46.535  -6.899 -28.093  0.00  0.00    +0.000 A 
ATOM     17  N   UNL     1     -46.862  -5.571 -28.105  0.00  0.00    +0.000 N 
ATOM     18  C   UNL     1     -47.725  -1.336 -25.786  0.00  0.00    +0.000 C 
ATOM     19  H   UNL     1     -45.677 -10.542 -28.064  0.00  0.00    +0.000 HD
ENDROOT
BRANCH  17  20
ATOM     20  C   UNL     1     -47.057  -4.901 -29.397  0.00  0.00    +0.000 C 
BRANCH  20  21
ATOM     21  C   UNL     1     -45.760  -4.286 -29.919  0.00  0.00    +0.000 C 
BRANCH  21  22
ATOM     22  O   UNL     1     -44.828  -5.310 -30.091  0.00  0.00    +0.000 OA
ATOM     23  H   UNL     1     -44.843  -5.896 -29.319  0.00  0.00    +0.000 HD
ENDBRANCH  21  22
BRANCH  21  24
ATOM     24  C   UNL     1     -45.979  -3.544 -31.242  0.00  0.00    +0.000 C 
BRANCH  24  25
ATOM     25  O   UNL     1     -47.276  -3.025 -31.299  0.00  0.00    +0.000 OA
ATOM     26  H   UNL     1     -47.618  -3.109 -32.203  0.00  0.00    +0.000 HD
ENDBRANCH  24  25
BRANCH  24  27
ATOM     27  C   UNL     1     -44.962  -2.416 -31.426  0.00  0.00    +0.000 C 
BRANCH  27  28
ATOM     28  O   UNL     1     -45.286  -1.325 -30.617  0.00  0.00    +0.000 OA
ATOM     29  H   UNL     1     -45.745  -0.653 -31.147  0.00  0.00    +0.000 HD
ENDBRANCH  27  28
BRANCH  27  30
ATOM     30  C   UNL     1     -44.909  -1.987 -32.883  0.00  0.00    +0.000 C 
BRANCH  30  31
ATOM     31  O   UNL     1     -45.865  -2.689 -33.618  0.00  0.00    +0.000 OA
ATOM     32  H   UNL     1     -46.749  -2.355 -33.398  0.00  0.00    +0.000 HD
ENDBRANCH  30  31
ENDBRANCH  27  30
ENDBRANCH  24  27
ENDBRANCH  21  24
ENDBRANCH  20  21
ENDBRANCH  17  20
TORSDOF 9
ENDMDL
MODEL 3
REMARK VINA RESULT:      -6.0      3.343      6.325
REMARK  Name = ZINC000004878453 PubChem-92237773
REMARK  9 active torsions:
REMARK  status: ('A' for Active; 'I' for Inactive)
REMARK    1  A    between atoms: N_17  and  C_20
REMARK    2  A    between atoms: C_20  and  C_21
REMARK    3  A    between atoms: C_21  and  O_22
REMARK    4  A    between atoms: C_21  and  C_24
REMARK    5  A    between atoms: C_24  and  O_25
REMARK    6  A    between atoms: C_24  and  C_27
REMARK    7  A    between atoms: C_27  and  O_28
REMARK    8  A    between atoms: C_27  and  C_30
REMARK    9  A    between atoms: C_30  and  O_31
REMARK                            x       y       z     vdW  Elec       q    Type
REMARK                         _______ _______ _______ _____ _____    ______ ____
ROOT
ATOM      1  C   UNL     1     -46.367 -16.253 -18.733  0.00  0.00    +0.000 C 
ATOM      2  C   UNL     1     -46.056 -16.389 -20.185  0.00  0.00    +0.000 A 
ATOM      3  C   UNL     1     -45.665 -17.619 -20.741  0.00  0.00    +0.000 A 
ATOM      4  C   UNL     1     -45.381 -17.705 -22.106  0.00  0.00    +0.000 A 
ATOM      5  C   UNL     1     -45.476 -16.579 -22.942  0.00  0.00    +0.000 A 
ATOM      6  C   UNL     1     -45.878 -15.345 -22.367  0.00  0.00    +0.000 A 
ATOM      7  C   UNL     1     -46.161 -15.261 -21.002  0.00  0.00    +0.000 A 
ATOM      8  C   UNL     1     -46.002 -14.203 -23.155  0.00  0.00    +0.000 A 
ATOM      9  C   UNL     1     -45.733 -14.277 -24.516  0.00  0.00    +0.000 A 
ATOM     10  C   UNL     1     -45.837 -13.183 -25.377  0.00  0.00    +0.000 A 
ATOM     11  O   UNL     1     -46.183 -12.051 -24.945  0.00  0.00    +0.000 OA
ATOM     12  N   UNL     1     -45.561 -13.341 -26.699  0.00  0.00    +0.000 N 
ATOM     13  C   UNL     1     -45.183 -14.540 -27.221  0.00  0.00    +0.000 A 
ATOM     14  O   UNL     1     -44.940 -14.634 -28.452  0.00  0.00    +0.000 OA
ATOM     15  N   UNL     1     -45.065 -15.637 -26.426  0.00  0.00    +0.000 NA
ATOM     16  C   UNL     1     -45.319 -15.570 -25.092  0.00  0.00    +0.000 A 
ATOM     17  N   UNL     1     -45.190 -16.667 -24.286  0.00  0.00    +0.000 N 
ATOM     18  C   UNL     1     -45.544 -18.848 -19.906  0.00  0.00    +0.000 C 
ATOM     19  H   UNL     1     -45.637 -12.563 -27.297  0.00  0.00    +0.000 HD
ENDROOT
BRANCH  17  20
ATOM     20  C   UNL     1     -44.770 -17.941 -24.884  0.00  0.00    +0.000 C 
BRANCH  20  21
ATOM     21  C   UNL     1     -43.252 -18.026 -25.032  0.00  0.00    +0.000 C 
BRANCH  21  22
ATOM     22  O   UNL     1     -42.776 -18.974 -24.126  0.00  0.00    +0.000 OA
ATOM     23  H   UNL     1     -43.487 -19.595 -23.903  0.00  0.00    +0.000 HD
ENDBRANCH  21  22
BRANCH  21  24
ATOM     24  C   UNL     1     -42.844 -18.409 -26.459  0.00  0.00    +0.000 C 
BRANCH  24  25
ATOM     25  O   UNL     1     -43.974 -18.514 -27.275  0.00  0.00    +0.000 OA
ATOM     26  H   UNL     1     -43.850 -17.971 -28.070  0.00  0.00    +0.000 HD
ENDBRANCH  24  25
BRANCH  24  27
ATOM     27  C   UNL     1     -41.869 -17.392 -27.055  0.00  0.00    +0.000 C 
BRANCH  27  28
ATOM     28  O   UNL     1     -42.109 -16.118 -26.536  0.00  0.00    +0.000 OA
ATOM     29  H   UNL     1     -42.249 -15.492 -27.264  0.00  0.00    +0.000 HD
ENDBRANCH  27  28
BRANCH  27  30
ATOM     30  C   UNL     1     -41.991 -17.370 -28.569  0.00  0.00    +0.000 C 
BRANCH  30  31
ATOM     31  O   UNL     1     -43.025 -16.513 -28.948  0.00  0.00    +0.000 OA
ATOM     32  H   UNL     1     -43.664 -16.438 -28.222  0.00  0.00    +0.000 HD
ENDBRANCH  30  31
ENDBRANCH  27  30
ENDBRANCH  24  27
ENDBRANCH  21  24
ENDBRANCH  20  21
ENDBRANCH  17  20
TORSDOF 9
ENDMDL
