MODEL 1
REMARK VINA RESULT:      -5.8      0.000      0.000
REMARK  Name = ZINC000005372519 ZINC05372519 PubChem-92261928
REMARK  9 active torsions:
REMARK  status: ('A' for Active; 'I' for Inactive)
REMARK    1  A    between atoms: N_14  and  C_20
REMARK    2  A    between atoms: C_20  and  C_21
REMARK    3  A    between atoms: C_21  and  O_22
REMARK    4  A    between atoms: C_21  and  C_24
REMARK    5  A    between atoms: C_24  and  O_25
REMARK    6  A    between atoms: C_24  and  C_27
REMARK    7  A    between atoms: C_27  and  O_28
REMARK    8  A    between atoms: C_27  and  C_30
REMARK    9  A    between atoms: C_30  and  O_31
REMARK                            x       y       z     vdW  Elec       q    Type
REMARK                         _______ _______ _______ _____ _____    ______ ____
ROOT
ATOM      1  C   UNL     1     -46.276 -16.521 -18.697  0.00  0.00    +0.000 C 
ATOM      2  C   UNL     1     -46.000 -16.615 -20.160  0.00  0.00    +0.000 A 
ATOM      3  C   UNL     1     -46.076 -15.455 -20.932  0.00  0.00    +0.000 A 
ATOM      4  C   UNL     1     -45.822 -15.498 -22.305  0.00  0.00    +0.000 A 
ATOM      5  C   UNL     1     -45.926 -14.328 -23.047  0.00  0.00    +0.000 A 
ATOM      6  C   UNL     1     -45.697 -14.354 -24.417  0.00  0.00    +0.000 A 
ATOM      7  C   UNL     1     -45.807 -13.212 -25.219  0.00  0.00    +0.000 A 
ATOM      8  O   UNL     1     -46.110 -12.096 -24.715  0.00  0.00    +0.000 OA
ATOM      9  N   UNL     1     -45.591 -13.304 -26.559  0.00  0.00    +0.000 N 
ATOM     10  C   UNL     1     -45.270 -14.475 -27.173  0.00  0.00    +0.000 A 
ATOM     11  O   UNL     1     -45.086 -14.495 -28.418  0.00  0.00    +0.000 OA
ATOM     12  C   UNL     1     -45.140 -15.654 -26.438  0.00  0.00    +0.000 A 
ATOM     13  C   UNL     1     -45.336 -15.642 -25.052  0.00  0.00    +0.000 A 
ATOM     14  N   UNL     1     -45.212 -16.774 -24.284  0.00  0.00    +0.000 N 
ATOM     15  C   UNL     1     -45.476 -16.723 -22.933  0.00  0.00    +0.000 A 
ATOM     16  C   UNL     1     -45.422 -17.884 -22.141  0.00  0.00    +0.000 A 
ATOM     17  C   UNL     1     -45.677 -17.839 -20.769  0.00  0.00    +0.000 A 
ATOM     18  C   UNL     1     -45.586 -19.103 -19.984  0.00  0.00    +0.000 C 
ATOM     19  H   UNL     1     -45.669 -12.489 -27.106  0.00  0.00    +0.000 HD
ENDROOT
BRANCH  14  20
ATOM     20  C   UNL     1     -44.821 -18.044 -24.918  0.00  0.00    +0.000 C 
BRANCH  20  21
ATOM     21  C   UNL     1     -43.347 -18.062 -25.349  0.00  0.00    +0.000 C 
BRANCH  21  22
ATOM     22  O   UNL     1     -42.527 -18.458 -24.288  0.00  0.00    +0.000 OA
ATOM     23  H   UNL     1     -42.156 -19.334 -24.476  0.00  0.00    +0.000 HD
ENDBRANCH  21  22
BRANCH  21  24
ATOM     24  C   UNL     1     -43.113 -18.945 -26.575  0.00  0.00    +0.000 C 
BRANCH  24  25
ATOM     25  O   UNL     1     -44.286 -19.031 -27.329  0.00  0.00    +0.000 OA
ATOM     26  H   UNL     1     -44.976 -18.486 -26.919  0.00  0.00    +0.000 HD
ENDBRANCH  24  25
BRANCH  24  27
ATOM     27  C   UNL     1     -41.970 -18.413 -27.441  0.00  0.00    +0.000 C 
BRANCH  27  28
ATOM     28  O   UNL     1     -40.747 -18.551 -26.780  0.00  0.00    +0.000 OA
ATOM     29  H   UNL     1     -40.906 -18.770 -25.849  0.00  0.00    +0.000 HD
ENDBRANCH  27  28
BRANCH  27  30
ATOM     30  C   UNL     1     -42.194 -16.952 -27.796  0.00  0.00    +0.000 C 
BRANCH  30  31
ATOM     31  O   UNL     1     -42.988 -16.857 -28.939  0.00  0.00    +0.000 OA
ATOM     32  H   UNL     1     -42.646 -16.153 -29.513  0.00  0.00    +0.000 HD
ENDBRANCH  30  31
ENDBRANCH  27  30
ENDBRANCH  24  27
ENDBRANCH  21  24
ENDBRANCH  20  21
ENDBRANCH  14  20
TORSDOF 9
ENDMDL
MODEL 2
REMARK VINA RESULT:      -5.7      2.553      5.025
REMARK  Name = ZINC000005372519 ZINC05372519 PubChem-92261928
REMARK  9 active torsions:
REMARK  status: ('A' for Active; 'I' for Inactive)
REMARK    1  A    between atoms: N_14  and  C_20
REMARK    2  A    between atoms: C_20  and  C_21
REMARK    3  A    between atoms: C_21  and  O_22
REMARK    4  A    between atoms: C_21  and  C_24
REMARK    5  A    between atoms: C_24  and  O_25
REMARK    6  A    between atoms: C_24  and  C_27
REMARK    7  A    between atoms: C_27  and  O_28
REMARK    8  A    between atoms: C_27  and  C_30
REMARK    9  A    between atoms: C_30  and  O_31
REMARK                            x       y       z     vdW  Elec       q    Type
REMARK                         _______ _______ _______ _____ _____    ______ ____
ROOT
ATOM      1  C   UNL     1     -46.702 -12.312 -19.959  0.00  0.00    +0.000 C 
ATOM      2  C   UNL     1     -46.393 -13.615 -20.616  0.00  0.00    +0.000 A 
ATOM      3  C   UNL     1     -46.107 -13.625 -21.982  0.00  0.00    +0.000 A 
ATOM      4  C   UNL     1     -45.810 -14.823 -22.636  0.00  0.00    +0.000 A 
ATOM      5  C   UNL     1     -45.548 -14.798 -24.001  0.00  0.00    +0.000 A 
ATOM      6  C   UNL     1     -45.270 -15.982 -24.674  0.00  0.00    +0.000 A 
ATOM      7  C   UNL     1     -45.020 -16.023 -26.050  0.00  0.00    +0.000 A 
ATOM      8  O   UNL     1     -45.024 -14.966 -26.738  0.00  0.00    +0.000 OA
ATOM      9  N   UNL     1     -44.774 -17.215 -26.657  0.00  0.00    +0.000 N 
ATOM     10  C   UNL     1     -44.762 -18.396 -25.981  0.00  0.00    +0.000 A 
ATOM     11  O   UNL     1     -44.531 -19.466 -26.601  0.00  0.00    +0.000 OA
ATOM     12  C   UNL     1     -45.000 -18.434 -24.606  0.00  0.00    +0.000 A 
ATOM     13  C   UNL     1     -45.252 -17.248 -23.905  0.00  0.00    +0.000 A 
ATOM     14  N   UNL     1     -45.484 -17.231 -22.551  0.00  0.00    +0.000 N 
ATOM     15  C   UNL     1     -45.787 -16.047 -21.918  0.00  0.00    +0.000 A 
ATOM     16  C   UNL     1     -46.096 -16.018 -20.546  0.00  0.00    +0.000 A 
ATOM     17  C   UNL     1     -46.394 -14.819 -19.895  0.00  0.00    +0.000 A 
ATOM     18  C   UNL     1     -46.696 -14.857 -18.435  0.00  0.00    +0.000 C 
ATOM     19  H   UNL     1     -44.597 -17.224 -27.626  0.00  0.00    +0.000 HD
ENDROOT
BRANCH  14  20
ATOM     20  C   UNL     1     -45.432 -18.491 -21.789  0.00  0.00    +0.000 C 
BRANCH  20  21
ATOM     21  C   UNL     1     -44.007 -18.856 -21.347  0.00  0.00    +0.000 C 
BRANCH  21  22
ATOM     22  O   UNL     1     -43.101 -17.863 -21.728  0.00  0.00    +0.000 OA
ATOM     23  H   UNL     1     -43.585 -17.106 -22.093  0.00  0.00    +0.000 HD
ENDBRANCH  21  22
BRANCH  21  24
ATOM     24  C   UNL     1     -43.919 -19.123 -19.844  0.00  0.00    +0.000 C 
BRANCH  24  25
ATOM     25  O   UNL     1     -44.988 -19.928 -19.441  0.00  0.00    +0.000 OA
ATOM     26  H   UNL     1     -45.677 -19.375 -19.040  0.00  0.00    +0.000 HD
ENDBRANCH  24  25
BRANCH  24  27
ATOM     27  C   UNL     1     -42.592 -19.786 -19.468  0.00  0.00    +0.000 C 
BRANCH  27  28
ATOM     28  O   UNL     1     -42.215 -20.714 -20.441  0.00  0.00    +0.000 OA
ATOM     29  H   UNL     1     -41.332 -21.058 -20.236  0.00  0.00    +0.000 HD
ENDBRANCH  27  28
BRANCH  27  30
ATOM     30  C   UNL     1     -42.695 -20.477 -18.118  0.00  0.00    +0.000 C 
BRANCH  30  31
ATOM     31  O   UNL     1     -43.107 -21.798 -18.290  0.00  0.00    +0.000 OA
ATOM     32  H   UNL     1     -42.995 -22.054 -19.219  0.00  0.00    +0.000 HD
ENDBRANCH  30  31
ENDBRANCH  27  30
ENDBRANCH  24  27
ENDBRANCH  21  24
ENDBRANCH  20  21
ENDBRANCH  14  20
TORSDOF 9
ENDMDL
MODEL 3
REMARK VINA RESULT:      -5.6      1.980      5.155
REMARK  Name = ZINC000005372519 ZINC05372519 PubChem-92261928
REMARK  9 active torsions:
REMARK  status: ('A' for Active; 'I' for Inactive)
REMARK    1  A    between atoms: N_14  and  C_20
REMARK    2  A    between atoms: C_20  and  C_21
REMARK    3  A    between atoms: C_21  and  O_22
REMARK    4  A    between atoms: C_21  and  C_24
REMARK    5  A    between atoms: C_24  and  O_25
REMARK    6  A    between atoms: C_24  and  C_27
REMARK    7  A    between atoms: C_27  and  O_28
REMARK    8  A    between atoms: C_27  and  C_30
REMARK    9  A    between atoms: C_30  and  O_31
REMARK                            x       y       z     vdW  Elec       q    Type
REMARK                         _______ _______ _______ _____ _____    ______ ____
ROOT
ATOM      1  C   UNL     1     -46.231 -14.964 -18.122  0.00  0.00    +0.000 C 
ATOM      2  C   UNL     1     -46.086 -15.294 -19.569  0.00  0.00    +0.000 A 
ATOM      3  C   UNL     1     -45.472 -16.497 -19.924  0.00  0.00    +0.000 A 
ATOM      4  C   UNL     1     -45.318 -16.847 -21.267  0.00  0.00    +0.000 A 
ATOM      5  C   UNL     1     -44.686 -18.043 -21.584  0.00  0.00    +0.000 A 
ATOM      6  C   UNL     1     -44.505 -18.399 -22.915  0.00  0.00    +0.000 A 
ATOM      7  C   UNL     1     -43.858 -19.580 -23.295  0.00  0.00    +0.000 A 
ATOM      8  O   UNL     1     -43.419 -20.384 -22.428  0.00  0.00    +0.000 OA
ATOM      9  N   UNL     1     -43.692 -19.865 -24.615  0.00  0.00    +0.000 N 
ATOM     10  C   UNL     1     -44.131 -19.041 -25.606  0.00  0.00    +0.000 A 
ATOM     11  O   UNL     1     -43.944 -19.360 -26.809  0.00  0.00    +0.000 OA
ATOM     12  C   UNL     1     -44.788 -17.848 -25.303  0.00  0.00    +0.000 A 
ATOM     13  C   UNL     1     -45.006 -17.487 -23.969  0.00  0.00    +0.000 A 
ATOM     14  N   UNL     1     -45.655 -16.327 -23.619  0.00  0.00    +0.000 N 
ATOM     15  C   UNL     1     -45.791 -15.986 -22.292  0.00  0.00    +0.000 A 
ATOM     16  C   UNL     1     -46.390 -14.770 -21.915  0.00  0.00    +0.000 A 
ATOM     17  C   UNL     1     -46.541 -14.422 -20.571  0.00  0.00    +0.000 A 
ATOM     18  C   UNL     1     -47.201 -13.127 -20.240  0.00  0.00    +0.000 C 
ATOM     19  H   UNL     1     -43.237 -20.702 -24.863  0.00  0.00    +0.000 HD
ENDROOT
BRANCH  14  20
ATOM     20  C   UNL     1     -46.179 -15.441 -24.673  0.00  0.00    +0.000 C 
BRANCH  20  21
ATOM     21  C   UNL     1     -45.265 -14.236 -24.940  0.00  0.00    +0.000 C 
BRANCH  21  22
ATOM     22  O   UNL     1     -44.250 -14.574 -25.839  0.00  0.00    +0.000 OA
ATOM     23  H   UNL     1     -44.137 -15.537 -25.851  0.00  0.00    +0.000 HD
ENDBRANCH  21  22
BRANCH  21  24
ATOM     24  C   UNL     1     -46.045 -13.017 -25.436  0.00  0.00    +0.000 C 
BRANCH  24  25
ATOM     25  O   UNL     1     -46.021 -12.011 -24.466  0.00  0.00    +0.000 OA
ATOM     26  H   UNL     1     -45.536 -12.324 -23.687  0.00  0.00    +0.000 HD
ENDBRANCH  24  25
BRANCH  24  27
ATOM     27  C   UNL     1     -45.481 -12.488 -26.756  0.00  0.00    +0.000 C 
BRANCH  27  28
ATOM     28  O   UNL     1     -44.455 -11.572 -26.519  0.00  0.00    +0.000 OA
ATOM     29  H   UNL     1     -44.818 -10.673 -26.510  0.00  0.00    +0.000 HD
ENDBRANCH  27  28
BRANCH  27  30
ATOM     30  C   UNL     1     -46.571 -11.830 -27.586  0.00  0.00    +0.000 C 
BRANCH  30  31
ATOM     31  O   UNL     1     -47.700 -11.608 -26.798  0.00  0.00    +0.000 OA
ATOM     32  H   UNL     1     -48.363 -11.121 -27.312  0.00  0.00    +0.000 HD
ENDBRANCH  30  31
ENDBRANCH  27  30
ENDBRANCH  24  27
ENDBRANCH  21  24
ENDBRANCH  20  21
ENDBRANCH  14  20
TORSDOF 9
ENDMDL
