MODEL 1
REMARK VINA RESULT:      -7.4      0.000      0.000
REMARK  Name = ZINC000015869695 MCULE-2885134168 MolPort-007-958-787
REMARK  5 active torsions:
REMARK  status: ('A' for Active; 'I' for Inactive)
REMARK    1  A    between atoms: C_7  and  C_18
REMARK    2  A    between atoms: C_10  and  C_12
REMARK    3  A    between atoms: C_18  and  N_19
REMARK    4  A    between atoms: N_19  and  S_21
REMARK    5  A    between atoms: S_21  and  C_24
REMARK                            x       y       z     vdW  Elec       q    Type
REMARK                         _______ _______ _______ _____ _____    ______ ____
ROOT
ATOM      1  N   UNL     1     -46.117 -14.747 -19.387  0.00  0.00    +0.000 N 
ATOM      2  C   UNL     1     -47.132 -14.859 -18.336  0.00  0.00    +0.000 C 
ATOM      3  C   UNL     1     -47.575 -16.338 -18.310  0.00  0.00    +0.000 C 
ATOM      4  C   UNL     1     -46.738 -16.963 -19.364  0.00  0.00    +0.000 A 
ATOM      5  C   UNL     1     -46.727 -18.298 -19.767  0.00  0.00    +0.000 A 
ATOM      6  C   UNL     1     -45.855 -18.675 -20.801  0.00  0.00    +0.000 A 
ATOM      7  C   UNL     1     -45.023 -17.717 -21.413  0.00  0.00    +0.000 A 
ATOM      8  C   UNL     1     -45.050 -16.379 -20.985  0.00  0.00    +0.000 A 
ATOM      9  C   UNL     1     -45.923 -16.034 -19.950  0.00  0.00    +0.000 A 
ATOM     10  C   UNL     1     -45.276 -13.595 -19.597  0.00  0.00    +0.000 C 
ATOM     11  O   UNL     1     -44.144 -13.745 -20.134  0.00  0.00    +0.000 OA
ENDROOT
BRANCH  10  12
ATOM     12  C   UNL     1     -45.697 -12.236 -19.187  0.00  0.00    +0.000 A 
ATOM     13  C   UNL     1     -46.717 -11.555 -19.868  0.00  0.00    +0.000 A 
ATOM     14  C   UNL     1     -47.096 -10.267 -19.477  0.00  0.00    +0.000 A 
ATOM     15  C   UNL     1     -46.454  -9.646 -18.402  0.00  0.00    +0.000 A 
ATOM     16  C   UNL     1     -45.430 -10.311 -17.723  0.00  0.00    +0.000 A 
ATOM     17  C   UNL     1     -45.051 -11.598 -18.116  0.00  0.00    +0.000 A 
ENDBRANCH  10  12
BRANCH   7  18
ATOM     18  C   UNL     1     -44.088 -18.133 -22.493  0.00  0.00    +0.000 C 
BRANCH  18  19
ATOM     19  N   UNL     1     -44.550 -19.374 -23.092  0.00  0.00    +0.000 NA
ATOM     20  H   UNL     1     -45.474 -19.611 -22.730  0.00  0.00    +0.000 HD
BRANCH  19  21
ATOM     21  S   UNL     1     -44.632 -19.132 -24.806  0.00  0.00    +0.000 S 
ATOM     22  O   UNL     1     -43.457 -19.802 -25.460  0.00  0.00    +0.000 OA
ATOM     23  O   UNL     1     -45.898 -19.745 -25.340  0.00  0.00    +0.000 OA
BRANCH  21  24
ATOM     24  C   UNL     1     -44.594 -17.415 -25.172  0.00  0.00    +0.000 A 
ATOM     25  C   UNL     1     -43.408 -16.819 -25.665  0.00  0.00    +0.000 A 
ATOM     26  C   UNL     1     -43.366 -15.449 -25.981  0.00  0.00    +0.000 A 
ATOM     27  C   UNL     1     -44.537 -14.718 -25.792  0.00  0.00    +0.000 A 
ATOM     28  C   UNL     1     -45.688 -15.291 -25.322  0.00  0.00    +0.000 A 
ATOM     29  C   UNL     1     -45.761 -16.642 -24.997  0.00  0.00    +0.000 A 
ATOM     30  O   UNL     1     -46.629 -14.379 -25.250  0.00  0.00    +0.000 OA
ATOM     31  C   UNL     1     -46.068 -13.257 -25.671  0.00  0.00    +0.000 A 
ATOM     32  N   UNL     1     -44.767 -13.416 -26.016  0.00  0.00    +0.000 N 
ATOM     33  C   UNL     1     -43.843 -12.411 -26.520  0.00  0.00    +0.000 C 
ATOM     34  O   UNL     1     -46.680 -12.159 -25.742  0.00  0.00    +0.000 OA
ENDBRANCH  21  24
ENDBRANCH  19  21
ENDBRANCH  18  19
ENDBRANCH   7  18
TORSDOF 5
ENDMDL
MODEL 2
REMARK VINA RESULT:      -7.3      2.113      5.702
REMARK  Name = ZINC000015869695 MCULE-2885134168 MolPort-007-958-787
REMARK  5 active torsions:
REMARK  status: ('A' for Active; 'I' for Inactive)
REMARK    1  A    between atoms: C_7  and  C_18
REMARK    2  A    between atoms: C_10  and  C_12
REMARK    3  A    between atoms: C_18  and  N_19
REMARK    4  A    between atoms: N_19  and  S_21
REMARK    5  A    between atoms: S_21  and  C_24
REMARK                            x       y       z     vdW  Elec       q    Type
REMARK                         _______ _______ _______ _____ _____    ______ ____
ROOT
ATOM      1  N   UNL     1     -46.061 -15.141 -19.643  0.00  0.00    +0.000 N 
ATOM      2  C   UNL     1     -46.587 -15.156 -18.276  0.00  0.00    +0.000 C 
ATOM      3  C   UNL     1     -46.926 -13.692 -17.919  0.00  0.00    +0.000 C 
ATOM      4  C   UNL     1     -46.573 -12.951 -19.155  0.00  0.00    +0.000 A 
ATOM      5  C   UNL     1     -46.680 -11.580 -19.389  0.00  0.00    +0.000 A 
ATOM      6  C   UNL     1     -46.275 -11.084 -20.639  0.00  0.00    +0.000 A 
ATOM      7  C   UNL     1     -45.767 -11.958 -21.620  0.00  0.00    +0.000 A 
ATOM      8  C   UNL     1     -45.673 -13.335 -21.360  0.00  0.00    +0.000 A 
ATOM      9  C   UNL     1     -46.090 -13.802 -20.109  0.00  0.00    +0.000 A 
ATOM     10  C   UNL     1     -45.835 -16.314 -20.448  0.00  0.00    +0.000 C 
ATOM     11  O   UNL     1     -45.881 -16.220 -21.706  0.00  0.00    +0.000 OA
ENDROOT
BRANCH  10  12
ATOM     12  C   UNL     1     -45.561 -17.637 -19.842  0.00  0.00    +0.000 A 
ATOM     13  C   UNL     1     -46.546 -18.636 -19.804  0.00  0.00    +0.000 A 
ATOM     14  C   UNL     1     -46.277 -19.877 -19.217  0.00  0.00    +0.000 A 
ATOM     15  C   UNL     1     -45.021 -20.129 -18.659  0.00  0.00    +0.000 A 
ATOM     16  C   UNL     1     -44.036 -19.137 -18.683  0.00  0.00    +0.000 A 
ATOM     17  C   UNL     1     -44.307 -17.897 -19.268  0.00  0.00    +0.000 A 
ENDBRANCH  10  12
BRANCH   7  18
ATOM     18  C   UNL     1     -45.361 -11.423 -22.947  0.00  0.00    +0.000 C 
BRANCH  18  19
ATOM     19  N   UNL     1     -44.384 -12.312 -23.556  0.00  0.00    +0.000 NA
ATOM     20  H   UNL     1     -44.329 -13.182 -23.026  0.00  0.00    +0.000 HD
BRANCH  19  21
ATOM     21  S   UNL     1     -44.907 -12.638 -25.175  0.00  0.00    +0.000 S 
ATOM     22  O   UNL     1     -46.356 -12.267 -25.315  0.00  0.00    +0.000 OA
ATOM     23  O   UNL     1     -44.100 -11.811 -26.140  0.00  0.00    +0.000 OA
BRANCH  21  24
ATOM     24  C   UNL     1     -44.711 -14.345 -25.537  0.00  0.00    +0.000 A 
ATOM     25  C   UNL     1     -43.643 -14.779 -26.359  0.00  0.00    +0.000 A 
ATOM     26  C   UNL     1     -43.461 -16.145 -26.644  0.00  0.00    +0.000 A 
ATOM     27  C   UNL     1     -44.370 -17.038 -26.080  0.00  0.00    +0.000 A 
ATOM     28  C   UNL     1     -45.399 -16.623 -25.279  0.00  0.00    +0.000 A 
ATOM     29  C   UNL     1     -45.609 -15.279 -24.982  0.00  0.00    +0.000 A 
ATOM     30  O   UNL     1     -46.089 -17.667 -24.883  0.00  0.00    +0.000 OA
ATOM     31  C   UNL     1     -45.492 -18.713 -25.431  0.00  0.00    +0.000 A 
ATOM     32  N   UNL     1     -44.421 -18.373 -26.187  0.00  0.00    +0.000 N 
ATOM     33  C   UNL     1     -43.530 -19.253 -26.929  0.00  0.00    +0.000 C 
ATOM     34  O   UNL     1     -45.882 -19.899 -25.265  0.00  0.00    +0.000 OA
ENDBRANCH  21  24
ENDBRANCH  19  21
ENDBRANCH  18  19
ENDBRANCH   7  18
TORSDOF 5
ENDMDL
MODEL 3
REMARK VINA RESULT:      -7.2      6.650     10.439
REMARK  Name = ZINC000015869695 MCULE-2885134168 MolPort-007-958-787
REMARK  5 active torsions:
REMARK  status: ('A' for Active; 'I' for Inactive)
REMARK    1  A    between atoms: C_7  and  C_18
REMARK    2  A    between atoms: C_10  and  C_12
REMARK    3  A    between atoms: C_18  and  N_19
REMARK    4  A    between atoms: N_19  and  S_21
REMARK    5  A    between atoms: S_21  and  C_24
REMARK                            x       y       z     vdW  Elec       q    Type
REMARK                         _______ _______ _______ _____ _____    ______ ____
ROOT
ATOM      1  N   UNL     1     -46.848  -5.509 -23.358  0.00  0.00    +0.000 N 
ATOM      2  C   UNL     1     -46.886  -4.690 -22.144  0.00  0.00    +0.000 C 
ATOM      3  C   UNL     1     -47.090  -3.231 -22.604  0.00  0.00    +0.000 C 
ATOM      4  C   UNL     1     -47.173  -3.349 -24.081  0.00  0.00    +0.000 A 
ATOM      5  C   UNL     1     -47.357  -2.326 -25.012  0.00  0.00    +0.000 A 
ATOM      6  C   UNL     1     -47.396  -2.664 -26.374  0.00  0.00    +0.000 A 
ATOM      7  C   UNL     1     -47.244  -4.004 -26.779  0.00  0.00    +0.000 A 
ATOM      8  C   UNL     1     -47.064  -5.017 -25.821  0.00  0.00    +0.000 A 
ATOM      9  C   UNL     1     -47.036  -4.652 -24.471  0.00  0.00    +0.000 A 
ATOM     10  C   UNL     1     -46.902  -6.949 -23.378  0.00  0.00    +0.000 C 
ATOM     11  O   UNL     1     -47.368  -7.537 -24.393  0.00  0.00    +0.000 OA
ENDROOT
BRANCH  10  12
ATOM     12  C   UNL     1     -46.437  -7.764 -22.233  0.00  0.00    +0.000 A 
ATOM     13  C   UNL     1     -45.091  -8.142 -22.110  0.00  0.00    +0.000 A 
ATOM     14  C   UNL     1     -44.668  -8.923 -21.029  0.00  0.00    +0.000 A 
ATOM     15  C   UNL     1     -45.589  -9.336 -20.063  0.00  0.00    +0.000 A 
ATOM     16  C   UNL     1     -46.933  -8.973 -20.181  0.00  0.00    +0.000 A 
ATOM     17  C   UNL     1     -47.355  -8.195 -21.263  0.00  0.00    +0.000 A 
ENDBRANCH  10  12
BRANCH   7  18
ATOM     18  C   UNL     1     -47.308  -4.352 -28.224  0.00  0.00    +0.000 C 
BRANCH  18  19
ATOM     19  N   UNL     1     -46.087  -5.034 -28.618  0.00  0.00    +0.000 NA
ATOM     20  H   UNL     1     -45.773  -5.649 -27.867  0.00  0.00    +0.000 HD
BRANCH  19  21
ATOM     21  S   UNL     1     -46.440  -5.968 -30.035  0.00  0.00    +0.000 S 
ATOM     22  O   UNL     1     -47.755  -5.523 -30.609  0.00  0.00    +0.000 OA
ATOM     23  O   UNL     1     -45.363  -5.749 -31.062  0.00  0.00    +0.000 OA
BRANCH  21  24
ATOM     24  C   UNL     1     -46.539  -7.672 -29.622  0.00  0.00    +0.000 A 
ATOM     25  C   UNL     1     -46.434  -8.656 -30.635  0.00  0.00    +0.000 A 
ATOM     26  C   UNL     1     -46.492 -10.026 -30.319  0.00  0.00    +0.000 A 
ATOM     27  C   UNL     1     -46.651 -10.361 -28.976  0.00  0.00    +0.000 A 
ATOM     28  C   UNL     1     -46.746  -9.413 -27.993  0.00  0.00    +0.000 A 
ATOM     29  C   UNL     1     -46.696  -8.051 -28.273  0.00  0.00    +0.000 A 
ATOM     30  O   UNL     1     -46.882 -10.007 -26.830  0.00  0.00    +0.000 OA
ATOM     31  C   UNL     1     -46.869 -11.304 -27.091  0.00  0.00    +0.000 A 
ATOM     32  N   UNL     1     -46.732 -11.575 -28.411  0.00  0.00    +0.000 N 
ATOM     33  C   UNL     1     -46.674 -12.876 -29.059  0.00  0.00    +0.000 C 
ATOM     34  O   UNL     1     -46.974 -12.191 -26.203  0.00  0.00    +0.000 OA
ENDBRANCH  21  24
ENDBRANCH  19  21
ENDBRANCH  18  19
ENDBRANCH   7  18
TORSDOF 5
ENDMDL
