MODEL 1
REMARK VINA RESULT:      -6.0      0.000      0.000
REMARK  Name = ZINC000018195878 ZINC18195878
REMARK  2 active torsions:
REMARK  status: ('A' for Active; 'I' for Inactive)
REMARK    1  A    between atoms: C_6  and  C_21
REMARK    2  A    between atoms: C_11  and  O_12
REMARK                            x       y       z     vdW  Elec       q    Type
REMARK                         _______ _______ _______ _____ _____    ______ ____
ROOT
ATOM      1  C   UNL     1     -43.141  -0.587 -33.543  0.00  0.00    +0.000 C 
ATOM      2  C   UNL     1     -43.597  -1.819 -32.790  0.00  0.00    +0.000 C 
ATOM      3  C   UNL     1     -44.101  -2.850 -33.801  0.00  0.00    +0.000 C 
ATOM      4  C   UNL     1     -44.818  -4.016 -33.170  0.00  0.00    +0.000 C 
ATOM      5  C   UNL     1     -45.419  -3.909 -31.948  0.00  0.00    +0.000 C 
ATOM      6  C   UNL     1     -46.105  -5.101 -31.269  0.00  0.00    +0.000 C 
ATOM      7  C   UNL     1     -46.272  -6.253 -32.213  0.00  0.00    +0.000 A 
ATOM      8  C   UNL     1     -45.678  -6.308 -33.428  0.00  0.00    +0.000 A 
ATOM      9  N   UNL     1     -45.934  -7.473 -34.048  0.00  0.00    +0.000 N 
ATOM     10  N   UNL     1     -46.696  -8.190 -33.226  0.00  0.00    +0.000 NA
ATOM     11  C   UNL     1     -46.906  -7.465 -32.106  0.00  0.00    +0.000 A 
ATOM     12  N   UNL     1     -44.913  -5.226 -33.944  0.00  0.00    +0.000 N 
ATOM     13  C   UNL     1     -45.388  -2.612 -31.228  0.00  0.00    +0.000 C 
ATOM     14  O   UNL     1     -45.970  -2.486 -30.119  0.00  0.00    +0.000 OA
ATOM     15  C   UNL     1     -44.714  -1.417 -31.831  0.00  0.00    +0.000 C 
ATOM     16  C   UNL     1     -42.409  -2.373 -32.018  0.00  0.00    +0.000 C 
ATOM     17  H   UNL     1     -45.619  -7.743 -34.940  0.00  0.00    +0.000 HD
ATOM     18  H   UNL     1     -44.458  -5.304 -34.812  0.00  0.00    +0.000 HD
ENDROOT
BRANCH   6  19
ATOM     19  C   UNL     1     -45.355  -5.537 -30.043  0.00  0.00    +0.000 A 
ATOM     20  C   UNL     1     -46.054  -5.731 -28.849  0.00  0.00    +0.000 A 
ATOM     21  C   UNL     1     -45.362  -6.144 -27.709  0.00  0.00    +0.000 A 
ATOM     22  N   UNL     1     -44.019  -6.355 -27.765  0.00  0.00    +0.000 NA
ATOM     23  C   UNL     1     -43.317  -6.177 -28.916  0.00  0.00    +0.000 A 
ATOM     24  C   UNL     1     -43.973  -5.765 -30.078  0.00  0.00    +0.000 A 
ENDBRANCH   6  19
BRANCH  11  25
ATOM     25  O   UNL     1     -47.648  -7.907 -31.019  0.00  0.00    +0.000 OA
ATOM     26  H   UNL     1     -48.475  -8.326 -31.154  0.00  0.00    +0.000 HD
ENDBRANCH  11  25
TORSDOF 2
ENDMDL
MODEL 2
REMARK VINA RESULT:      -5.9     13.519     16.065
REMARK  Name = ZINC000018195878 ZINC18195878
REMARK  2 active torsions:
REMARK  status: ('A' for Active; 'I' for Inactive)
REMARK    1  A    between atoms: C_6  and  C_21
REMARK    2  A    between atoms: C_11  and  O_12
REMARK                            x       y       z     vdW  Elec       q    Type
REMARK                         _______ _______ _______ _____ _____    ______ ____
ROOT
ATOM      1  C   UNL     1     -46.186 -15.477 -18.218  0.00  0.00    +0.000 C 
ATOM      2  C   UNL     1     -45.567 -16.167 -19.415  0.00  0.00    +0.000 C 
ATOM      3  C   UNL     1     -45.915 -15.369 -20.673  0.00  0.00    +0.000 C 
ATOM      4  C   UNL     1     -45.579 -16.084 -21.956  0.00  0.00    +0.000 C 
ATOM      5  C   UNL     1     -45.495 -17.447 -22.015  0.00  0.00    +0.000 C 
ATOM      6  C   UNL     1     -45.100 -18.185 -23.300  0.00  0.00    +0.000 C 
ATOM      7  C   UNL     1     -45.110 -17.271 -24.488  0.00  0.00    +0.000 A 
ATOM      8  C   UNL     1     -45.220 -15.926 -24.387  0.00  0.00    +0.000 A 
ATOM      9  N   UNL     1     -45.137 -15.335 -25.591  0.00  0.00    +0.000 N 
ATOM     10  N   UNL     1     -44.960 -16.302 -26.487  0.00  0.00    +0.000 NA
ATOM     11  C   UNL     1     -44.937 -17.483 -25.832  0.00  0.00    +0.000 A 
ATOM     12  N   UNL     1     -45.426 -15.277 -23.139  0.00  0.00    +0.000 N 
ATOM     13  C   UNL     1     -45.762 -18.249 -20.796  0.00  0.00    +0.000 C 
ATOM     14  O   UNL     1     -45.727 -19.506 -20.842  0.00  0.00    +0.000 OA
ATOM     15  C   UNL     1     -46.131 -17.583 -19.505  0.00  0.00    +0.000 C 
ATOM     16  C   UNL     1     -44.059 -16.208 -19.216  0.00  0.00    +0.000 C 
ATOM     17  H   UNL     1     -45.195 -14.369 -25.775  0.00  0.00    +0.000 HD
ATOM     18  H   UNL     1     -45.464 -14.295 -23.085  0.00  0.00    +0.000 HD
ENDROOT
BRANCH   6  19
ATOM     19  C   UNL     1     -43.758 -18.844 -23.160  0.00  0.00    +0.000 A 
ATOM     20  C   UNL     1     -43.619 -20.190 -23.508  0.00  0.00    +0.000 A 
ATOM     21  C   UNL     1     -42.371 -20.804 -23.387  0.00  0.00    +0.000 A 
ATOM     22  N   UNL     1     -41.302 -20.094 -22.936  0.00  0.00    +0.000 NA
ATOM     23  C   UNL     1     -41.411 -18.782 -22.596  0.00  0.00    +0.000 A 
ATOM     24  C   UNL     1     -42.641 -18.131 -22.703  0.00  0.00    +0.000 A 
ENDBRANCH   6  19
BRANCH  11  25
ATOM     25  O   UNL     1     -44.755 -18.714 -26.449  0.00  0.00    +0.000 OA
ATOM     26  H   UNL     1     -45.491 -19.175 -26.803  0.00  0.00    +0.000 HD
ENDBRANCH  11  25
TORSDOF 2
ENDMDL
MODEL 3
REMARK VINA RESULT:      -5.7     12.159     15.766
REMARK  Name = ZINC000018195878 ZINC18195878
REMARK  2 active torsions:
REMARK  status: ('A' for Active; 'I' for Inactive)
REMARK    1  A    between atoms: C_6  and  C_21
REMARK    2  A    between atoms: C_11  and  O_12
REMARK                            x       y       z     vdW  Elec       q    Type
REMARK                         _______ _______ _______ _____ _____    ______ ____
ROOT
ATOM      1  C   UNL     1     -42.506 -21.490 -23.556  0.00  0.00    +0.000 C 
ATOM      2  C   UNL     1     -43.094 -20.096 -23.600  0.00  0.00    +0.000 C 
ATOM      3  C   UNL     1     -43.239 -19.582 -22.165  0.00  0.00    +0.000 C 
ATOM      4  C   UNL     1     -44.047 -18.314 -22.055  0.00  0.00    +0.000 C 
ATOM      5  C   UNL     1     -44.974 -17.973 -22.999  0.00  0.00    +0.000 C 
ATOM      6  C   UNL     1     -45.763 -16.660 -22.928  0.00  0.00    +0.000 C 
ATOM      7  C   UNL     1     -45.598 -15.986 -21.600  0.00  0.00    +0.000 A 
ATOM      8  C   UNL     1     -44.683 -16.373 -20.682  0.00  0.00    +0.000 A 
ATOM      9  N   UNL     1     -44.694 -15.567 -19.606  0.00  0.00    +0.000 N 
ATOM     10  N   UNL     1     -45.620 -14.638 -19.828  0.00  0.00    +0.000 NA
ATOM     11  C   UNL     1     -46.175 -14.876 -21.036  0.00  0.00    +0.000 A 
ATOM     12  N   UNL     1     -43.858 -17.515 -20.873  0.00  0.00    +0.000 N 
ATOM     13  C   UNL     1     -45.213 -18.877 -24.151  0.00  0.00    +0.000 C 
ATOM     14  O   UNL     1     -46.090 -18.596 -25.008  0.00  0.00    +0.000 OA
ATOM     15  C   UNL     1     -44.456 -20.163 -24.285  0.00  0.00    +0.000 C 
ATOM     16  C   UNL     1     -42.147 -19.202 -24.387  0.00  0.00    +0.000 C 
ATOM     17  H   UNL     1     -44.126 -15.648 -18.807  0.00  0.00    +0.000 HD
ATOM     18  H   UNL     1     -43.172 -17.755 -20.209  0.00  0.00    +0.000 HD
ENDROOT
BRANCH   6  19
ATOM     19  C   UNL     1     -45.371 -15.727 -24.038  0.00  0.00    +0.000 A 
ATOM     20  C   UNL     1     -46.366 -15.171 -24.846  0.00  0.00    +0.000 A 
ATOM     21  C   UNL     1     -46.006 -14.296 -25.873  0.00  0.00    +0.000 A 
ATOM     22  N   UNL     1     -44.697 -13.990 -26.081  0.00  0.00    +0.000 NA
ATOM     23  C   UNL     1     -43.710 -14.515 -25.306  0.00  0.00    +0.000 A 
ATOM     24  C   UNL     1     -44.029 -15.393 -24.268  0.00  0.00    +0.000 A 
ENDBRANCH   6  19
BRANCH  11  25
ATOM     25  O   UNL     1     -47.172 -14.095 -21.605  0.00  0.00    +0.000 OA
ATOM     26  H   UNL     1     -47.736 -14.457 -22.260  0.00  0.00    +0.000 HD
ENDBRANCH  11  25
TORSDOF 2
ENDMDL
