MODEL 1
REMARK VINA RESULT:      -7.2      0.000      0.000
REMARK  Name = ZINC000670444915
REMARK  7 active torsions:
REMARK  status: ('A' for Active; 'I' for Inactive)
REMARK    1  A    between atoms: N_1  and  C_18
REMARK    2  A    between atoms: C_2  and  C_5
REMARK    3  A    between atoms: N_9  and  C_11
REMARK    4  A    between atoms: C_11  and  C_12
REMARK    5  A    between atoms: C_18  and  C_19
REMARK    6  A    between atoms: C_19  and  C_25
REMARK    7  A    between atoms: C_27  and  O_28
REMARK                            x       y       z     vdW  Elec       q    Type
REMARK                         _______ _______ _______ _____ _____    ______ ____
ROOT
ATOM      1  N   UNL     1     -46.848 -10.854 -28.716  0.00  0.00    +0.000 N 
ATOM      2  C   UNL     1     -47.065 -11.748 -27.620  0.00  0.00    +0.000 C 
ATOM      3  O   UNL     1     -47.449 -11.305 -26.505  0.00  0.00    +0.000 OA
ATOM      4  H   UNL     1     -46.506 -11.214 -29.566  0.00  0.00    +0.000 HD
ENDROOT
BRANCH   2   5
ATOM      5  C   UNL     1     -46.881 -13.218 -27.801  0.00  0.00    +0.000 C 
ATOM      6  C   UNL     1     -45.916 -13.494 -28.961  0.00  0.00    +0.000 C 
ATOM      7  C   UNL     1     -44.852 -14.296 -28.328  0.00  0.00    +0.000 C 
ATOM      8  O   UNL     1     -43.834 -14.712 -28.940  0.00  0.00    +0.000 OA
ATOM      9  N   UNL     1     -45.081 -14.530 -26.955  0.00  0.00    +0.000 N 
ATOM     10  C   UNL     1     -46.287 -13.851 -26.530  0.00  0.00    +0.000 C 
BRANCH   9  11
ATOM     11  C   UNL     1     -44.153 -15.178 -26.041  0.00  0.00    +0.000 C 
BRANCH  11  12
ATOM     12  C   UNL     1     -44.577 -16.584 -25.780  0.00  0.00    +0.000 A 
ATOM     13  C   UNL     1     -45.449 -16.875 -24.728  0.00  0.00    +0.000 A 
ATOM     14  C   UNL     1     -45.855 -18.191 -24.505  0.00  0.00    +0.000 A 
ATOM     15  C   UNL     1     -45.386 -19.200 -25.349  0.00  0.00    +0.000 A 
ATOM     16  N   UNL     1     -44.544 -18.897 -26.373  0.00  0.00    +0.000 NA
ATOM     17  C   UNL     1     -44.135 -17.620 -26.605  0.00  0.00    +0.000 A 
ENDBRANCH  11  12
ENDBRANCH   9  11
ENDBRANCH   2   5
BRANCH   1  18
ATOM     18  C   UNL     1     -47.120  -9.430 -28.609  0.00  0.00    +0.000 C 
BRANCH  18  19
ATOM     19  C   UNL     1     -45.910  -8.710 -28.036  0.00  0.00    +0.000 C 
BRANCH  19  25
ATOM     20  C   UNL     1     -47.347  -3.045 -23.130  0.00  0.00    +0.000 C 
ATOM     21  C   UNL     1     -47.128  -4.050 -24.206  0.00  0.00    +0.000 A 
ATOM     22  S   UNL     1     -46.770  -5.679 -23.925  0.00  0.00    +0.000 S 
ATOM     23  C   UNL     1     -46.675  -6.067 -25.553  0.00  0.00    +0.000 A 
ATOM     24  N   UNL     1     -46.377  -7.276 -26.081  0.00  0.00    +0.000 NA
ATOM     25  C   UNL     1     -46.318  -7.407 -27.436  0.00  0.00    +0.000 A 
ATOM     26  N   UNL     1     -46.543  -6.326 -28.243  0.00  0.00    +0.000 NA
ATOM     27  C   UNL     1     -46.843  -5.100 -27.727  0.00  0.00    +0.000 A 
ATOM     28  C   UNL     1     -46.912  -4.954 -26.338  0.00  0.00    +0.000 A 
ATOM     29  C   UNL     1     -47.175  -3.800 -25.581  0.00  0.00    +0.000 A 
ATOM     30  C   UNL     1     -47.457  -2.453 -26.161  0.00  0.00    +0.000 C 
BRANCH  27  31
ATOM     31  O   UNL     1     -47.071  -4.029 -28.580  0.00  0.00    +0.000 OA
ATOM     32  H   UNL     1     -47.816  -4.034 -29.150  0.00  0.00    +0.000 HD
ENDBRANCH  27  31
ENDBRANCH  19  25
ENDBRANCH  18  19
ENDBRANCH   1  18
TORSDOF 7
ENDMDL
MODEL 2
REMARK VINA RESULT:      -7.2      5.983      7.867
REMARK  Name = ZINC000670444915
REMARK  7 active torsions:
REMARK  status: ('A' for Active; 'I' for Inactive)
REMARK    1  A    between atoms: N_1  and  C_18
REMARK    2  A    between atoms: C_2  and  C_5
REMARK    3  A    between atoms: N_9  and  C_11
REMARK    4  A    between atoms: C_11  and  C_12
REMARK    5  A    between atoms: C_18  and  C_19
REMARK    6  A    between atoms: C_19  and  C_25
REMARK    7  A    between atoms: C_27  and  O_28
REMARK                            x       y       z     vdW  Elec       q    Type
REMARK                         _______ _______ _______ _____ _____    ______ ____
ROOT
ATOM      1  N   UNL     1     -47.100  -7.670 -28.505  0.00  0.00    +0.000 N 
ATOM      2  C   UNL     1     -46.686  -8.754 -29.342  0.00  0.00    +0.000 C 
ATOM      3  O   UNL     1     -45.809  -9.566 -28.944  0.00  0.00    +0.000 OA
ATOM      4  H   UNL     1     -47.754  -7.021 -28.852  0.00  0.00    +0.000 HD
ENDROOT
BRANCH   2   5
ATOM      5  C   UNL     1     -47.321  -8.958 -30.678  0.00  0.00    +0.000 C 
ATOM      6  C   UNL     1     -47.479  -7.615 -31.401  0.00  0.00    +0.000 C 
ATOM      7  C   UNL     1     -46.744  -7.825 -32.662  0.00  0.00    +0.000 C 
ATOM      8  O   UNL     1     -46.604  -6.939 -33.545  0.00  0.00    +0.000 OA
ATOM      9  N   UNL     1     -46.190  -9.119 -32.768  0.00  0.00    +0.000 N 
ATOM     10  C   UNL     1     -46.450  -9.871 -31.559  0.00  0.00    +0.000 C 
BRANCH   9  11
ATOM     11  C   UNL     1     -45.312  -9.578 -33.833  0.00  0.00    +0.000 C 
BRANCH  11  12
ATOM     12  C   UNL     1     -46.061 -10.443 -34.788  0.00  0.00    +0.000 A 
ATOM     13  C   UNL     1     -46.947  -9.877 -35.709  0.00  0.00    +0.000 A 
ATOM     14  C   UNL     1     -47.629 -10.694 -36.612  0.00  0.00    +0.000 A 
ATOM     15  C   UNL     1     -47.404 -12.072 -36.585  0.00  0.00    +0.000 A 
ATOM     16  N   UNL     1     -46.533 -12.606 -35.687  0.00  0.00    +0.000 NA
ATOM     17  C   UNL     1     -45.861 -11.825 -34.797  0.00  0.00    +0.000 A 
ENDBRANCH  11  12
ENDBRANCH   9  11
ENDBRANCH   2   5
BRANCH   1  18
ATOM     18  C   UNL     1     -46.583  -7.502 -27.157  0.00  0.00    +0.000 C 
BRANCH  18  19
ATOM     19  C   UNL     1     -45.899  -6.150 -27.026  0.00  0.00    +0.000 C 
BRANCH  19  25
ATOM     20  C   UNL     1     -43.287  -4.506 -34.005  0.00  0.00    +0.000 C 
ATOM     21  C   UNL     1     -43.905  -4.701 -32.664  0.00  0.00    +0.000 A 
ATOM     22  S   UNL     1     -43.235  -5.659 -31.440  0.00  0.00    +0.000 S 
ATOM     23  C   UNL     1     -44.479  -5.361 -30.357  0.00  0.00    +0.000 A 
ATOM     24  N   UNL     1     -44.604  -5.867 -29.110  0.00  0.00    +0.000 NA
ATOM     25  C   UNL     1     -45.701  -5.537 -28.371  0.00  0.00    +0.000 A 
ATOM     26  N   UNL     1     -46.663  -4.718 -28.894  0.00  0.00    +0.000 NA
ATOM     27  C   UNL     1     -46.552  -4.200 -30.151  0.00  0.00    +0.000 A 
ATOM     28  C   UNL     1     -45.429  -4.528 -30.917  0.00  0.00    +0.000 A 
ATOM     29  C   UNL     1     -45.110  -4.142 -32.230  0.00  0.00    +0.000 A 
ATOM     30  C   UNL     1     -45.956  -3.254 -33.081  0.00  0.00    +0.000 C 
BRANCH  27  31
ATOM     31  O   UNL     1     -47.548  -3.367 -30.644  0.00  0.00    +0.000 OA
ATOM     32  H   UNL     1     -47.458  -2.981 -31.493  0.00  0.00    +0.000 HD
ENDBRANCH  27  31
ENDBRANCH  19  25
ENDBRANCH  18  19
ENDBRANCH   1  18
TORSDOF 7
ENDMDL
MODEL 3
REMARK VINA RESULT:      -7.0      7.347     11.142
REMARK  Name = ZINC000670444915
REMARK  7 active torsions:
REMARK  status: ('A' for Active; 'I' for Inactive)
REMARK    1  A    between atoms: N_1  and  C_18
REMARK    2  A    between atoms: C_2  and  C_5
REMARK    3  A    between atoms: N_9  and  C_11
REMARK    4  A    between atoms: C_11  and  C_12
REMARK    5  A    between atoms: C_18  and  C_19
REMARK    6  A    between atoms: C_19  and  C_25
REMARK    7  A    between atoms: C_27  and  O_28
REMARK                            x       y       z     vdW  Elec       q    Type
REMARK                         _______ _______ _______ _____ _____    ______ ____
ROOT
ATOM      1  N   UNL     1     -41.730 -20.044 -22.289  0.00  0.00    +0.000 N 
ATOM      2  C   UNL     1     -42.170 -18.866 -22.971  0.00  0.00    +0.000 C 
ATOM      3  O   UNL     1     -42.066 -17.736 -22.422  0.00  0.00    +0.000 OA
ATOM      4  H   UNL     1     -41.860 -20.921 -22.717  0.00  0.00    +0.000 HD
ENDROOT
BRANCH   2   5
ATOM      5  C   UNL     1     -42.714 -18.958 -24.358  0.00  0.00    +0.000 C 
ATOM      6  C   UNL     1     -43.914 -19.914 -24.395  0.00  0.00    +0.000 C 
ATOM      7  C   UNL     1     -44.997 -19.071 -24.935  0.00  0.00    +0.000 C 
ATOM      8  O   UNL     1     -46.178 -19.473 -25.099  0.00  0.00    +0.000 OA
ATOM      9  N   UNL     1     -44.579 -17.755 -25.225  0.00  0.00    +0.000 N 
ATOM     10  C   UNL     1     -43.193 -17.579 -24.847  0.00  0.00    +0.000 C 
BRANCH   9  11
ATOM     11  C   UNL     1     -45.445 -16.666 -25.649  0.00  0.00    +0.000 C 
BRANCH  11  12
ATOM     12  C   UNL     1     -45.671 -15.713 -24.526  0.00  0.00    +0.000 A 
ATOM     13  C   UNL     1     -45.679 -16.168 -23.204  0.00  0.00    +0.000 A 
ATOM     14  C   UNL     1     -45.872 -15.264 -22.158  0.00  0.00    +0.000 A 
ATOM     15  C   UNL     1     -46.044 -13.910 -22.452  0.00  0.00    +0.000 A 
ATOM     16  N   UNL     1     -46.026 -13.484 -23.744  0.00  0.00    +0.000 NA
ATOM     17  C   UNL     1     -45.842 -14.350 -24.777  0.00  0.00    +0.000 A 
ENDBRANCH  11  12
ENDBRANCH   9  11
ENDBRANCH   2   5
BRANCH   1  18
ATOM     18  C   UNL     1     -41.096 -19.982 -20.982  0.00  0.00    +0.000 C 
BRANCH  18  19
ATOM     19  C   UNL     1     -42.012 -20.584 -19.930  0.00  0.00    +0.000 C 
BRANCH  19  25
ATOM     20  C   UNL     1     -45.887 -14.241 -18.205  0.00  0.00    +0.000 C 
ATOM     21  C   UNL     1     -45.275 -15.561 -18.521  0.00  0.00    +0.000 A 
ATOM     22  S   UNL     1     -43.608 -15.840 -18.599  0.00  0.00    +0.000 S 
ATOM     23  C   UNL     1     -43.774 -17.461 -18.992  0.00  0.00    +0.000 A 
ATOM     24  N   UNL     1     -42.776 -18.340 -19.239  0.00  0.00    +0.000 NA
ATOM     25  C   UNL     1     -43.095 -19.622 -19.572  0.00  0.00    +0.000 A 
ATOM     26  N   UNL     1     -44.404 -20.005 -19.666  0.00  0.00    +0.000 NA
ATOM     27  C   UNL     1     -45.422 -19.131 -19.421  0.00  0.00    +0.000 A 
ATOM     28  C   UNL     1     -45.108 -17.813 -19.075  0.00  0.00    +0.000 A 
ATOM     29  C   UNL     1     -45.972 -16.739 -18.804  0.00  0.00    +0.000 A 
ATOM     30  C   UNL     1     -47.463 -16.824 -18.828  0.00  0.00    +0.000 C 
BRANCH  27  31
ATOM     31  O   UNL     1     -46.739 -19.560 -19.522  0.00  0.00    +0.000 OA
ATOM     32  H   UNL     1     -47.080 -19.836 -20.350  0.00  0.00    +0.000 HD
ENDBRANCH  27  31
ENDBRANCH  19  25
ENDBRANCH  18  19
ENDBRANCH   1  18
TORSDOF 7
ENDMDL
