MODEL 1
REMARK VINA RESULT:      -7.6      0.000      0.000
REMARK  Name = ZINC000009305088 CHEMBL1468769 CSC026749162 MCULE-2734999692 MolPort-000-208-662 PubChem-1077467
REMARK  6 active torsions:
REMARK  status: ('A' for Active; 'I' for Inactive)
REMARK    1  A    between atoms: N_3  and  C_27
REMARK    2  A    between atoms: C_7  and  C_18
REMARK    3  A    between atoms: N_20  and  C_22
REMARK    4  A    between atoms: C_27  and  C_28
REMARK    5  A    between atoms: C_28  and  C_29
REMARK    6  A    between atoms: C_29  and  N_30
REMARK                            x       y       z     vdW  Elec       q    Type
REMARK                         _______ _______ _______ _____ _____    ______ ____
ROOT
ATOM      1  N   UNL     1     -46.727  -6.769 -31.630  0.00  0.00    +0.000 NA
ATOM      2  C   UNL     1     -46.790  -6.584 -30.349  0.00  0.00    +0.000 A 
ATOM      3  N   UNL     1     -46.943  -5.310 -29.852  0.00  0.00    +0.000 N 
ATOM      4  C   UNL     1     -46.982  -5.079 -28.502  0.00  0.00    +0.000 A 
ATOM      5  C   UNL     1     -46.883  -6.148 -27.598  0.00  0.00    +0.000 A 
ATOM      6  C   UNL     1     -46.742  -7.442 -28.091  0.00  0.00    +0.000 A 
ATOM      7  C   UNL     1     -46.694  -7.687 -29.466  0.00  0.00    +0.000 A 
ATOM      8  C   UNL     1     -46.932  -5.884 -26.222  0.00  0.00    +0.000 A 
ATOM      9  O   UNL     1     -46.845  -6.838 -25.396  0.00  0.00    +0.000 OA
ATOM     10  N   UNL     1     -47.075  -4.596 -25.780  0.00  0.00    +0.000 N 
ATOM     11  C   UNL     1     -47.125  -4.336 -24.438  0.00  0.00    +0.000 A 
ATOM     12  C   UNL     1     -47.271  -3.030 -23.966  0.00  0.00    +0.000 A 
ATOM     13  C   UNL     1     -47.367  -1.982 -24.879  0.00  0.00    +0.000 A 
ATOM     14  C   UNL     1     -47.315  -2.247 -26.246  0.00  0.00    +0.000 A 
ATOM     15  C   UNL     1     -47.168  -3.564 -26.687  0.00  0.00    +0.000 A 
ATOM     16  N   UNL     1     -47.119  -3.815 -28.019  0.00  0.00    +0.000 NA
ATOM     17  H   UNL     1     -46.794  -6.000 -32.243  0.00  0.00    +0.000 HD
ENDROOT
BRANCH   7  18
ATOM     18  C   UNL     1     -46.549  -9.097 -29.916  0.00  0.00    +0.000 C 
ATOM     19  O   UNL     1     -47.026  -9.446 -31.031  0.00  0.00    +0.000 OA
ATOM     20  N   UNL     1     -45.864 -10.065 -29.113  0.00  0.00    +0.000 N 
ATOM     21  H   UNL     1     -45.468  -9.773 -28.260  0.00  0.00    +0.000 HD
BRANCH  20  22
ATOM     22  C   UNL     1     -45.726 -11.460 -29.503  0.00  0.00    +0.000 C 
ATOM     23  C   UNL     1     -46.979 -12.235 -29.124  0.00  0.00    +0.000 C 
ATOM     24  C   UNL     1     -46.589 -13.152 -27.986  0.00  0.00    +0.000 C 
ATOM     25  C   UNL     1     -45.103 -13.370 -28.143  0.00  0.00    +0.000 C 
ATOM     26  C   UNL     1     -44.574 -12.084 -28.736  0.00  0.00    +0.000 C 
ENDBRANCH  20  22
ENDBRANCH   7  18
BRANCH   3  27
ATOM     27  C   UNL     1     -47.091  -4.179 -30.776  0.00  0.00    +0.000 C 
BRANCH  27  28
ATOM     28  C   UNL     1     -45.749  -3.820 -31.397  0.00  0.00    +0.000 C 
BRANCH  28  29
ATOM     29  C   UNL     1     -45.443  -2.338 -31.188  0.00  0.00    +0.000 C 
BRANCH  29  30
ATOM     30  N   UNL     1     -45.151  -1.617 -32.433  0.00  0.00    +0.000 NA
ATOM     31  C   UNL     1     -44.233  -0.483 -32.230  0.00  0.00    +0.000 C 
ATOM     32  C   UNL     1     -42.765  -0.901 -32.375  0.00  0.00    +0.000 C 
ATOM     33  O   UNL     1     -42.570  -1.527 -33.615  0.00  0.00    +0.000 OA
ATOM     34  C   UNL     1     -43.230  -2.760 -33.529  0.00  0.00    +0.000 C 
ATOM     35  C   UNL     1     -44.745  -2.532 -33.513  0.00  0.00    +0.000 C 
ENDBRANCH  29  30
ENDBRANCH  28  29
ENDBRANCH  27  28
ENDBRANCH   3  27
TORSDOF 6
ENDMDL
MODEL 2
REMARK VINA RESULT:      -7.5      3.577      8.511
REMARK  Name = ZINC000009305088 CHEMBL1468769 CSC026749162 MCULE-2734999692 MolPort-000-208-662 PubChem-1077467
REMARK  6 active torsions:
REMARK  status: ('A' for Active; 'I' for Inactive)
REMARK    1  A    between atoms: N_3  and  C_27
REMARK    2  A    between atoms: C_7  and  C_18
REMARK    3  A    between atoms: N_20  and  C_22
REMARK    4  A    between atoms: C_27  and  C_28
REMARK    5  A    between atoms: C_28  and  C_29
REMARK    6  A    between atoms: C_29  and  N_30
REMARK                            x       y       z     vdW  Elec       q    Type
REMARK                         _______ _______ _______ _____ _____    ______ ____
ROOT
ATOM      1  N   UNL     1     -46.744  -6.688 -33.662  0.00  0.00    +0.000 NA
ATOM      2  C   UNL     1     -46.749  -7.202 -32.472  0.00  0.00    +0.000 A 
ATOM      3  N   UNL     1     -46.681  -8.568 -32.321  0.00  0.00    +0.000 N 
ATOM      4  C   UNL     1     -46.716  -9.143 -31.077  0.00  0.00    +0.000 A 
ATOM      5  C   UNL     1     -46.805  -8.341 -29.929  0.00  0.00    +0.000 A 
ATOM      6  C   UNL     1     -46.861  -6.958 -30.071  0.00  0.00    +0.000 A 
ATOM      7  C   UNL     1     -46.833  -6.362 -31.335  0.00  0.00    +0.000 A 
ATOM      8  C   UNL     1     -46.831  -8.955 -28.669  0.00  0.00    +0.000 A 
ATOM      9  O   UNL     1     -46.911  -8.244 -27.626  0.00  0.00    +0.000 OA
ATOM     10  N   UNL     1     -46.772 -10.320 -28.574  0.00  0.00    +0.000 N 
ATOM     11  C   UNL     1     -46.795 -10.920 -27.346  0.00  0.00    +0.000 A 
ATOM     12  C   UNL     1     -46.734 -12.310 -27.228  0.00  0.00    +0.000 A 
ATOM     13  C   UNL     1     -46.647 -13.090 -28.378  0.00  0.00    +0.000 A 
ATOM     14  C   UNL     1     -46.624 -12.478 -29.630  0.00  0.00    +0.000 A 
ATOM     15  C   UNL     1     -46.687 -11.085 -29.716  0.00  0.00    +0.000 A 
ATOM     16  N   UNL     1     -46.662 -10.495 -30.937  0.00  0.00    +0.000 NA
ATOM     17  H   UNL     1     -46.686  -7.274 -34.451  0.00  0.00    +0.000 HD
ENDROOT
BRANCH   7  18
ATOM     18  C   UNL     1     -46.888  -4.877 -31.405  0.00  0.00    +0.000 C 
ATOM     19  O   UNL     1     -47.756  -4.255 -30.732  0.00  0.00    +0.000 OA
ATOM     20  N   UNL     1     -45.963  -4.139 -32.209  0.00  0.00    +0.000 N 
ATOM     21  H   UNL     1     -45.270  -4.634 -32.704  0.00  0.00    +0.000 HD
BRANCH  20  22
ATOM     22  C   UNL     1     -46.001  -2.689 -32.328  0.00  0.00    +0.000 C 
ATOM     23  C   UNL     1     -45.396  -2.257 -33.655  0.00  0.00    +0.000 C 
ATOM     24  C   UNL     1     -44.082  -1.583 -33.329  0.00  0.00    +0.000 C 
ATOM     25  C   UNL     1     -44.236  -1.077 -31.915  0.00  0.00    +0.000 C 
ATOM     26  C   UNL     1     -45.147  -2.073 -31.235  0.00  0.00    +0.000 C 
ENDBRANCH  20  22
ENDBRANCH   7  18
BRANCH   3  27
ATOM     27  C   UNL     1     -46.546  -9.428 -33.502  0.00  0.00    +0.000 C 
BRANCH  27  28
ATOM     28  C   UNL     1     -45.099  -9.861 -33.682  0.00  0.00    +0.000 C 
BRANCH  28  29
ATOM     29  C   UNL     1     -45.028 -11.329 -34.098  0.00  0.00    +0.000 C 
BRANCH  29  30
ATOM     30  N   UNL     1     -44.613 -11.526 -35.492  0.00  0.00    +0.000 NA
ATOM     31  C   UNL     1     -43.939 -12.818 -35.706  0.00  0.00    +0.000 C 
ATOM     32  C   UNL     1     -44.931 -13.930 -36.065  0.00  0.00    +0.000 C 
ATOM     33  O   UNL     1     -45.700 -13.543 -37.172  0.00  0.00    +0.000 OA
ATOM     34  C   UNL     1     -46.541 -12.520 -36.714  0.00  0.00    +0.000 C 
ATOM     35  C   UNL     1     -45.715 -11.261 -36.433  0.00  0.00    +0.000 C 
ENDBRANCH  29  30
ENDBRANCH  28  29
ENDBRANCH  27  28
ENDBRANCH   3  27
TORSDOF 6
ENDMDL
MODEL 3
REMARK VINA RESULT:      -7.5      1.902      6.108
REMARK  Name = ZINC000009305088 CHEMBL1468769 CSC026749162 MCULE-2734999692 MolPort-000-208-662 PubChem-1077467
REMARK  6 active torsions:
REMARK  status: ('A' for Active; 'I' for Inactive)
REMARK    1  A    between atoms: N_3  and  C_27
REMARK    2  A    between atoms: C_7  and  C_18
REMARK    3  A    between atoms: N_20  and  C_22
REMARK    4  A    between atoms: C_27  and  C_28
REMARK    5  A    between atoms: C_28  and  C_29
REMARK    6  A    between atoms: C_29  and  N_30
REMARK                            x       y       z     vdW  Elec       q    Type
REMARK                         _______ _______ _______ _____ _____    ______ ____
ROOT
ATOM      1  N   UNL     1     -47.617  -7.789 -29.217  0.00  0.00    +0.000 NA
ATOM      2  C   UNL     1     -46.904  -7.108 -30.057  0.00  0.00    +0.000 A 
ATOM      3  N   UNL     1     -46.780  -5.747 -29.897  0.00  0.00    +0.000 N 
ATOM      4  C   UNL     1     -46.057  -4.995 -30.787  0.00  0.00    +0.000 A 
ATOM      5  C   UNL     1     -45.414  -5.608 -31.873  0.00  0.00    +0.000 A 
ATOM      6  C   UNL     1     -45.522  -6.985 -32.035  0.00  0.00    +0.000 A 
ATOM      7  C   UNL     1     -46.262  -7.760 -31.138  0.00  0.00    +0.000 A 
ATOM      8  C   UNL     1     -44.676  -4.815 -32.764  0.00  0.00    +0.000 A 
ATOM      9  O   UNL     1     -44.091  -5.355 -33.747  0.00  0.00    +0.000 OA
ATOM     10  N   UNL     1     -44.594  -3.463 -32.565  0.00  0.00    +0.000 N 
ATOM     11  C   UNL     1     -43.873  -2.689 -33.432  0.00  0.00    +0.000 A 
ATOM     12  C   UNL     1     -43.775  -1.308 -33.247  0.00  0.00    +0.000 A 
ATOM     13  C   UNL     1     -44.421  -0.717 -32.163  0.00  0.00    +0.000 A 
ATOM     14  C   UNL     1     -45.156  -1.507 -31.281  0.00  0.00    +0.000 A 
ATOM     15  C   UNL     1     -45.236  -2.885 -31.493  0.00  0.00    +0.000 A 
ATOM     16  N   UNL     1     -45.951  -3.648 -30.629  0.00  0.00    +0.000 NA
ATOM     17  H   UNL     1     -48.062  -7.333 -28.465  0.00  0.00    +0.000 HD
ENDROOT
BRANCH   7  18
ATOM     18  C   UNL     1     -46.324  -9.227 -31.374  0.00  0.00    +0.000 C 
ATOM     19  O   UNL     1     -46.581  -9.661 -32.531  0.00  0.00    +0.000 OA
ATOM     20  N   UNL     1     -46.081 -10.159 -30.314  0.00  0.00    +0.000 N 
ATOM     21  H   UNL     1     -45.850  -9.808 -29.423  0.00  0.00    +0.000 HD
BRANCH  20  22
ATOM     22  C   UNL     1     -46.161 -11.601 -30.496  0.00  0.00    +0.000 C 
ATOM     23  C   UNL     1     -47.080 -12.209 -29.448  0.00  0.00    +0.000 C 
ATOM     24  C   UNL     1     -46.196 -12.993 -28.504  0.00  0.00    +0.000 C 
ATOM     25  C   UNL     1     -44.974 -13.355 -29.313  0.00  0.00    +0.000 C 
ATOM     26  C   UNL     1     -44.787 -12.210 -30.282  0.00  0.00    +0.000 C 
ENDBRANCH  20  22
ENDBRANCH   7  18
BRANCH   3  27
ATOM     27  C   UNL     1     -47.408  -5.086 -28.747  0.00  0.00    +0.000 C 
BRANCH  27  28
ATOM     28  C   UNL     1     -46.400  -4.905 -27.622  0.00  0.00    +0.000 C 
BRANCH  28  29
ATOM     29  C   UNL     1     -46.846  -5.668 -26.376  0.00  0.00    +0.000 C 
BRANCH  29  30
ATOM     30  N   UNL     1     -46.485  -7.091 -26.399  0.00  0.00    +0.000 NA
ATOM     31  C   UNL     1     -45.045  -7.307 -26.624  0.00  0.00    +0.000 C 
ATOM     32  C   UNL     1     -44.257  -7.344 -25.310  0.00  0.00    +0.000 C 
ATOM     33  O   UNL     1     -44.811  -8.305 -24.451  0.00  0.00    +0.000 OA
ATOM     34  C   UNL     1     -46.051  -7.791 -24.049  0.00  0.00    +0.000 C 
ATOM     35  C   UNL     1     -47.024  -7.810 -25.232  0.00  0.00    +0.000 C 
ENDBRANCH  29  30
ENDBRANCH  28  29
ENDBRANCH  27  28
ENDBRANCH   3  27
TORSDOF 6
ENDMDL
