MODEL 1
REMARK VINA RESULT:      -6.9      0.000      0.000
REMARK  Name = ZINC000008861088
REMARK  3 active torsions:
REMARK  status: ('A' for Active; 'I' for Inactive)
REMARK    1  A    between atoms: C_1  and  C_3
REMARK    2  A    between atoms: C_1  and  O_15
REMARK    3  A    between atoms: O_15  and  C_19
REMARK                            x       y       z     vdW  Elec       q    Type
REMARK                         _______ _______ _______ _____ _____    ______ ____
ROOT
ATOM      1  C   UNL     1     -46.389  -4.207 -30.906  0.00  0.00    +0.000 C 
ATOM      2  O   UNL     1     -47.109  -4.833 -31.728  0.00  0.00    +0.000 OA
ENDROOT
BRANCH   1   3
ATOM      3  C   UNL     1     -44.929  -4.092 -31.148  0.00  0.00    +0.000 A 
ATOM      4  C   UNL     1     -44.130  -5.227 -30.959  0.00  0.00    +0.000 A 
ATOM      5  C   UNL     1     -42.757  -5.166 -31.193  0.00  0.00    +0.000 A 
ATOM      6  O   UNL     1     -42.046  -6.189 -31.017  0.00  0.00    +0.000 OA
ATOM      7  N   UNL     1     -42.186  -4.007 -31.611  0.00  0.00    +0.000 N 
ATOM      8  C   UNL     1     -42.920  -2.882 -31.811  0.00  0.00    +0.000 A 
ATOM      9  C   UNL     1     -42.288  -1.710 -32.235  0.00  0.00    +0.000 A 
ATOM     10  C   UNL     1     -43.032  -0.544 -32.433  0.00  0.00    +0.000 A 
ATOM     11  C   UNL     1     -44.409  -0.544 -32.206  0.00  0.00    +0.000 A 
ATOM     12  C   UNL     1     -45.050  -1.713 -31.782  0.00  0.00    +0.000 A 
ATOM     13  C   UNL     1     -44.319  -2.895 -31.587  0.00  0.00    +0.000 A 
ATOM     14  H   UNL     1     -41.215  -3.982 -31.772  0.00  0.00    +0.000 HD
ENDBRANCH   1   3
BRANCH   1  15
ATOM     15  O   UNL     1     -46.987  -3.715 -29.736  0.00  0.00    +0.000 OA
BRANCH  15  19
ATOM     16  C   UNL     1     -47.372  -3.263 -24.882  0.00  0.00    +0.000 C 
ATOM     17  C   UNL     1     -47.096  -4.128 -26.065  0.00  0.00    +0.000 A 
ATOM     18  C   UNL     1     -47.166  -3.559 -27.339  0.00  0.00    +0.000 A 
ATOM     19  C   UNL     1     -46.921  -4.328 -28.478  0.00  0.00    +0.000 A 
ATOM     20  C   UNL     1     -46.582  -5.682 -28.329  0.00  0.00    +0.000 A 
ATOM     21  C   UNL     1     -46.510  -6.264 -27.063  0.00  0.00    +0.000 A 
ATOM     22  C   UNL     1     -46.155  -7.708 -26.962  0.00  0.00    +0.000 C 
ATOM     23  C   UNL     1     -46.769  -5.489 -25.917  0.00  0.00    +0.000 A 
ATOM     24 CL   UNL     1     -46.681  -6.216 -24.311  0.00  0.00    +0.000 Cl
ENDBRANCH  15  19
ENDBRANCH   1  15
TORSDOF 3
ENDMDL
MODEL 2
REMARK VINA RESULT:      -6.7     12.013     13.902
REMARK  Name = ZINC000008861088
REMARK  3 active torsions:
REMARK  status: ('A' for Active; 'I' for Inactive)
REMARK    1  A    between atoms: C_1  and  C_3
REMARK    2  A    between atoms: C_1  and  O_15
REMARK    3  A    between atoms: O_15  and  C_19
REMARK                            x       y       z     vdW  Elec       q    Type
REMARK                         _______ _______ _______ _____ _____    ______ ____
ROOT
ATOM      1  C   UNL     1     -45.628 -14.877 -24.902  0.00  0.00    +0.000 C 
ATOM      2  O   UNL     1     -46.820 -14.598 -25.196  0.00  0.00    +0.000 OA
ENDROOT
BRANCH   1   3
ATOM      3  C   UNL     1     -44.858 -15.809 -25.764  0.00  0.00    +0.000 A 
ATOM      4  C   UNL     1     -44.013 -15.268 -26.741  0.00  0.00    +0.000 A 
ATOM      5  C   UNL     1     -43.259 -16.108 -27.560  0.00  0.00    +0.000 A 
ATOM      6  O   UNL     1     -42.505 -15.615 -28.438  0.00  0.00    +0.000 OA
ATOM      7  N   UNL     1     -43.336 -17.456 -27.412  0.00  0.00    +0.000 N 
ATOM      8  C   UNL     1     -44.139 -18.025 -26.476  0.00  0.00    +0.000 A 
ATOM      9  C   UNL     1     -44.191 -19.418 -26.365  0.00  0.00    +0.000 A 
ATOM     10  C   UNL     1     -45.022 -20.015 -25.414  0.00  0.00    +0.000 A 
ATOM     11  C   UNL     1     -45.806 -19.223 -24.573  0.00  0.00    +0.000 A 
ATOM     12  C   UNL     1     -45.760 -17.829 -24.677  0.00  0.00    +0.000 A 
ATOM     13  C   UNL     1     -44.923 -17.213 -25.621  0.00  0.00    +0.000 A 
ATOM     14  H   UNL     1     -42.796 -18.034 -27.998  0.00  0.00    +0.000 HD
ENDBRANCH   1   3
BRANCH   1  15
ATOM     15  O   UNL     1     -45.097 -14.361 -23.711  0.00  0.00    +0.000 OA
BRANCH  15  19
ATOM     16  C   UNL     1     -45.683 -17.571 -20.068  0.00  0.00    +0.000 C 
ATOM     17  C   UNL     1     -45.907 -16.200 -20.608  0.00  0.00    +0.000 A 
ATOM     18  C   UNL     1     -45.414 -15.893 -21.880  0.00  0.00    +0.000 A 
ATOM     19  C   UNL     1     -45.594 -14.622 -22.427  0.00  0.00    +0.000 A 
ATOM     20  C   UNL     1     -46.296 -13.654 -21.693  0.00  0.00    +0.000 A 
ATOM     21  C   UNL     1     -46.793 -13.945 -20.421  0.00  0.00    +0.000 A 
ATOM     22  C   UNL     1     -47.523 -12.878 -19.680  0.00  0.00    +0.000 C 
ATOM     23  C   UNL     1     -46.600 -15.224 -19.867  0.00  0.00    +0.000 A 
ATOM     24 CL   UNL     1     -47.223 -15.602 -18.260  0.00  0.00    +0.000 Cl
ENDBRANCH  15  19
ENDBRANCH   1  15
TORSDOF 3
ENDMDL
MODEL 3
REMARK VINA RESULT:      -6.7      2.238      2.728
REMARK  Name = ZINC000008861088
REMARK  3 active torsions:
REMARK  status: ('A' for Active; 'I' for Inactive)
REMARK    1  A    between atoms: C_1  and  C_3
REMARK    2  A    between atoms: C_1  and  O_15
REMARK    3  A    between atoms: O_15  and  C_19
REMARK                            x       y       z     vdW  Elec       q    Type
REMARK                         _______ _______ _______ _____ _____    ______ ____
ROOT
ATOM      1  C   UNL     1     -46.738  -3.932 -32.999  0.00  0.00    +0.000 C 
ATOM      2  O   UNL     1     -47.560  -3.950 -33.953  0.00  0.00    +0.000 OA
ENDROOT
BRANCH   1   3
ATOM      3  C   UNL     1     -45.282  -3.975 -33.285  0.00  0.00    +0.000 A 
ATOM      4  C   UNL     1     -44.729  -5.174 -33.752  0.00  0.00    +0.000 A 
ATOM      5  C   UNL     1     -43.369  -5.251 -34.050  0.00  0.00    +0.000 A 
ATOM      6  O   UNL     1     -42.879  -6.332 -34.466  0.00  0.00    +0.000 OA
ATOM      7  N   UNL     1     -42.573  -4.162 -33.894  0.00  0.00    +0.000 N 
ATOM      8  C   UNL     1     -43.065  -2.977 -33.447  0.00  0.00    +0.000 A 
ATOM      9  C   UNL     1     -42.205  -1.885 -33.294  0.00  0.00    +0.000 A 
ATOM     10  C   UNL     1     -42.698  -0.665 -32.824  0.00  0.00    +0.000 A 
ATOM     11  C   UNL     1     -44.050  -0.533 -32.502  0.00  0.00    +0.000 A 
ATOM     12  C   UNL     1     -44.917  -1.620 -32.652  0.00  0.00    +0.000 A 
ATOM     13  C   UNL     1     -44.439  -2.851 -33.132  0.00  0.00    +0.000 A 
ATOM     14  H   UNL     1     -41.615  -4.233 -34.109  0.00  0.00    +0.000 HD
ENDBRANCH   1   3
BRANCH   1  15
ATOM     15  O   UNL     1     -47.237  -3.964 -31.688  0.00  0.00    +0.000 OA
BRANCH  15  19
ATOM     16  C   UNL     1     -46.202  -5.684 -27.229  0.00  0.00    +0.000 C 
ATOM     17  C   UNL     1     -46.655  -5.948 -28.624  0.00  0.00    +0.000 A 
ATOM     18  C   UNL     1     -46.748  -4.872 -29.512  0.00  0.00    +0.000 A 
ATOM     19  C   UNL     1     -47.172  -5.067 -30.827  0.00  0.00    +0.000 A 
ATOM     20  C   UNL     1     -47.487  -6.365 -31.260  0.00  0.00    +0.000 A 
ATOM     21  C   UNL     1     -47.401  -7.449 -30.384  0.00  0.00    +0.000 A 
ATOM     22  C   UNL     1     -47.756  -8.804 -30.892  0.00  0.00    +0.000 C 
ATOM     23  C   UNL     1     -46.984  -7.247 -29.055  0.00  0.00    +0.000 A 
ATOM     24 CL   UNL     1     -46.872  -8.611 -27.941  0.00  0.00    +0.000 Cl
ENDBRANCH  15  19
ENDBRANCH   1  15
TORSDOF 3
ENDMDL
