MODEL 1
REMARK VINA RESULT:      -6.2      0.000      0.000
REMARK  Name = ZINC000030726767 ZINC30726767 PubChem-37870901
REMARK  7 active torsions:
REMARK  status: ('A' for Active; 'I' for Inactive)
REMARK    1  A    between atoms: N_1  and  C_10
REMARK    2  A    between atoms: C_2  and  C_18
REMARK    3  A    between atoms: C_5  and  O_15
REMARK    4  A    between atoms: O_15  and  C_17
REMARK    5  A    between atoms: C_18  and  C_19
REMARK    6  A    between atoms: C_19  and  C_20
REMARK    7  A    between atoms: C_29  and  O_32
REMARK                            x       y       z     vdW  Elec       q    Type
REMARK                         _______ _______ _______ _____ _____    ______ ____
ROOT
ATOM      1  N   UNL     1     -44.248 -19.136 -20.469  0.00  0.00    +0.000 N 
ATOM      2  C   UNL     1     -43.724 -19.267 -21.796  0.00  0.00    +0.000 C 
ATOM      3  O   UNL     1     -43.295 -20.388 -22.175  0.00  0.00    +0.000 OA
ATOM      4  H   UNL     1     -44.400 -19.974 -19.976  0.00  0.00    +0.000 HD
ENDROOT
BRANCH   1  10
ATOM      5  C   UNL     1     -43.573 -17.264 -19.026  0.00  0.00    +0.000 A 
ATOM      6  C   UNL     1     -43.870 -16.057 -18.357  0.00  0.00    +0.000 A 
ATOM      7  C   UNL     1     -45.157 -15.540 -18.458  0.00  0.00    +0.000 A 
ATOM      8  C   UNL     1     -46.118 -16.165 -19.190  0.00  0.00    +0.000 A 
ATOM      9  C   UNL     1     -45.865 -17.354 -19.868  0.00  0.00    +0.000 A 
ATOM     10  C   UNL     1     -44.578 -17.922 -19.776  0.00  0.00    +0.000 A 
ATOM     11  O   UNL     1     -47.309 -15.476 -19.152  0.00  0.00    +0.000 OA
ATOM     12  C   UNL     1     -47.173 -14.311 -18.337  0.00  0.00    +0.000 C 
ATOM     13  C   UNL     1     -45.706 -14.301 -17.852  0.00  0.00    +0.000 C 
ATOM     14  C   UNL     1     -47.449 -13.071 -19.163  0.00  0.00    +0.000 C 
BRANCH   5  15
ATOM     15  O   UNL     1     -42.294 -17.829 -18.958  0.00  0.00    +0.000 OA
BRANCH  15  17
ATOM     16  C   UNL     1     -42.180 -19.535 -17.278  0.00  0.00    +0.000 C 
ATOM     17  C   UNL     1     -41.674 -18.181 -17.729  0.00  0.00    +0.000 C 
ENDBRANCH  15  17
ENDBRANCH   5  15
ENDBRANCH   1  10
BRANCH   2  18
ATOM     18  C   UNL     1     -43.743 -18.141 -22.776  0.00  0.00    +0.000 C 
BRANCH  18  19
ATOM     19  C   UNL     1     -45.111 -18.054 -23.430  0.00  0.00    +0.000 C 
BRANCH  19  20
ATOM     20  C   UNL     1     -45.113 -17.018 -24.518  0.00  0.00    +0.000 A 
ATOM     21  C   UNL     1     -45.502 -15.687 -24.222  0.00  0.00    +0.000 A 
ATOM     22  C   UNL     1     -45.460 -14.754 -25.268  0.00  0.00    +0.000 A 
ATOM     23  C   UNL     1     -45.110 -15.144 -26.530  0.00  0.00    +0.000 A 
ATOM     24  N   UNL     1     -44.740 -16.412 -26.832  0.00  0.00    +0.000 NA
ATOM     25  C   UNL     1     -44.717 -17.354 -25.845  0.00  0.00    +0.000 A 
ATOM     26  C   UNL     1     -44.268 -18.733 -26.193  0.00  0.00    +0.000 C 
ATOM     27  N   UNL     1     -45.234 -14.122 -27.387  0.00  0.00    +0.000 N 
ATOM     28  N   UNL     1     -45.651 -13.053 -26.723  0.00  0.00    +0.000 NA
ATOM     29  C   UNL     1     -45.782 -13.402 -25.420  0.00  0.00    +0.000 A 
ATOM     30  C   UNL     1     -44.979 -14.149 -28.817  0.00  0.00    +0.000 C 
ATOM     31  C   UNL     1     -46.018 -15.330 -22.867  0.00  0.00    +0.000 C 
BRANCH  29  32
ATOM     32  O   UNL     1     -46.173 -12.484 -24.443  0.00  0.00    +0.000 OA
ATOM     33  C   UNL     1     -45.243 -11.743 -23.670  0.00  0.00    +0.000 C 
ENDBRANCH  29  32
ENDBRANCH  19  20
ENDBRANCH  18  19
ENDBRANCH   2  18
TORSDOF 7
ENDMDL
MODEL 2
REMARK VINA RESULT:      -6.1      2.636      7.728
REMARK  Name = ZINC000030726767 ZINC30726767 PubChem-37870901
REMARK  7 active torsions:
REMARK  status: ('A' for Active; 'I' for Inactive)
REMARK    1  A    between atoms: N_1  and  C_10
REMARK    2  A    between atoms: C_2  and  C_18
REMARK    3  A    between atoms: C_5  and  O_15
REMARK    4  A    between atoms: O_15  and  C_17
REMARK    5  A    between atoms: C_18  and  C_19
REMARK    6  A    between atoms: C_19  and  C_20
REMARK    7  A    between atoms: C_29  and  O_32
REMARK                            x       y       z     vdW  Elec       q    Type
REMARK                         _______ _______ _______ _____ _____    ______ ____
ROOT
ATOM      1  N   UNL     1     -42.805 -16.361 -26.372  0.00  0.00    +0.000 N 
ATOM      2  C   UNL     1     -42.776 -17.794 -26.416  0.00  0.00    +0.000 C 
ATOM      3  O   UNL     1     -41.679 -18.387 -26.251  0.00  0.00    +0.000 OA
ATOM      4  H   UNL     1     -41.987 -15.919 -26.048  0.00  0.00    +0.000 HD
ENDROOT
BRANCH   1  10
ATOM      5  C   UNL     1     -44.767 -15.023 -25.742  0.00  0.00    +0.000 A 
ATOM      6  C   UNL     1     -45.826 -14.154 -26.085  0.00  0.00    +0.000 A 
ATOM      7  C   UNL     1     -45.976 -13.782 -27.417  0.00  0.00    +0.000 A 
ATOM      8  C   UNL     1     -45.123 -14.228 -28.379  0.00  0.00    +0.000 A 
ATOM      9  C   UNL     1     -44.065 -15.081 -28.082  0.00  0.00    +0.000 A 
ATOM     10  C   UNL     1     -43.889 -15.498 -26.747  0.00  0.00    +0.000 A 
ATOM     11  O   UNL     1     -45.458 -13.730 -29.618  0.00  0.00    +0.000 OA
ATOM     12  C   UNL     1     -46.617 -12.901 -29.515  0.00  0.00    +0.000 C 
ATOM     13  C   UNL     1     -46.999 -12.891 -28.018  0.00  0.00    +0.000 C 
ATOM     14  C   UNL     1     -46.283 -11.495 -29.970  0.00  0.00    +0.000 C 
BRANCH   5  15
ATOM     15  O   UNL     1     -44.571 -15.430 -24.417  0.00  0.00    +0.000 OA
BRANCH  15  17
ATOM     16  C   UNL     1     -45.992 -15.094 -22.516  0.00  0.00    +0.000 C 
ATOM     17  C   UNL     1     -44.809 -14.575 -23.307  0.00  0.00    +0.000 C 
ENDBRANCH  15  17
ENDBRANCH   5  15
ENDBRANCH   1  10
BRANCH   2  18
ATOM     18  C   UNL     1     -44.016 -18.611 -26.568  0.00  0.00    +0.000 C 
BRANCH  18  19
ATOM     19  C   UNL     1     -43.920 -19.855 -25.701  0.00  0.00    +0.000 C 
BRANCH  19  20
ATOM     20  C   UNL     1     -44.143 -19.511 -24.256  0.00  0.00    +0.000 A 
ATOM     21  C   UNL     1     -43.168 -19.867 -23.290  0.00  0.00    +0.000 A 
ATOM     22  C   UNL     1     -43.413 -19.499 -21.959  0.00  0.00    +0.000 A 
ATOM     23  C   UNL     1     -44.579 -18.875 -21.618  0.00  0.00    +0.000 A 
ATOM     24  N   UNL     1     -45.524 -18.532 -22.526  0.00  0.00    +0.000 NA
ATOM     25  C   UNL     1     -45.320 -18.822 -23.844  0.00  0.00    +0.000 A 
ATOM     26  C   UNL     1     -46.356 -18.400 -24.830  0.00  0.00    +0.000 C 
ATOM     27  N   UNL     1     -44.650 -18.708 -20.290  0.00  0.00    +0.000 N 
ATOM     28  N   UNL     1     -43.550 -19.201 -19.737  0.00  0.00    +0.000 NA
ATOM     29  C   UNL     1     -42.765 -19.677 -20.734  0.00  0.00    +0.000 A 
ATOM     30  C   UNL     1     -45.742 -18.108 -19.544  0.00  0.00    +0.000 C 
ATOM     31  C   UNL     1     -41.975 -20.678 -23.677  0.00  0.00    +0.000 C 
BRANCH  29  32
ATOM     32  O   UNL     1     -41.507 -20.232 -20.485  0.00  0.00    +0.000 OA
ATOM     33  C   UNL     1     -41.271 -21.161 -19.440  0.00  0.00    +0.000 C 
ENDBRANCH  29  32
ENDBRANCH  19  20
ENDBRANCH  18  19
ENDBRANCH   2  18
TORSDOF 7
ENDMDL
MODEL 3
REMARK VINA RESULT:      -6.0     11.437     16.398
REMARK  Name = ZINC000030726767 ZINC30726767 PubChem-37870901
REMARK  7 active torsions:
REMARK  status: ('A' for Active; 'I' for Inactive)
REMARK    1  A    between atoms: N_1  and  C_10
REMARK    2  A    between atoms: C_2  and  C_18
REMARK    3  A    between atoms: C_5  and  O_15
REMARK    4  A    between atoms: O_15  and  C_17
REMARK    5  A    between atoms: C_18  and  C_19
REMARK    6  A    between atoms: C_19  and  C_20
REMARK    7  A    between atoms: C_29  and  O_32
REMARK                            x       y       z     vdW  Elec       q    Type
REMARK                         _______ _______ _______ _____ _____    ______ ____
ROOT
ATOM      1  N   UNL     1     -47.403  -4.118 -31.782  0.00  0.00    +0.000 N 
ATOM      2  C   UNL     1     -46.457  -3.446 -32.623  0.00  0.00    +0.000 C 
ATOM      3  O   UNL     1     -46.881  -2.731 -33.568  0.00  0.00    +0.000 OA
ATOM      4  H   UNL     1     -48.344  -3.851 -31.885  0.00  0.00    +0.000 HD
ENDROOT
BRANCH   1  10
ATOM      5  C   UNL     1     -46.931  -6.469 -31.240  0.00  0.00    +0.000 A 
ATOM      6  C   UNL     1     -46.642  -7.481 -30.299  0.00  0.00    +0.000 A 
ATOM      7  C   UNL     1     -46.562  -7.135 -28.954  0.00  0.00    +0.000 A 
ATOM      8  C   UNL     1     -46.743  -5.851 -28.539  0.00  0.00    +0.000 A 
ATOM      9  C   UNL     1     -47.025  -4.825 -29.434  0.00  0.00    +0.000 A 
ATOM     10  C   UNL     1     -47.134  -5.136 -30.805  0.00  0.00    +0.000 A 
ATOM     11  O   UNL     1     -46.614  -5.741 -27.173  0.00  0.00    +0.000 OA
ATOM     12  C   UNL     1     -46.339  -7.022 -26.603  0.00  0.00    +0.000 C 
ATOM     13  C   UNL     1     -46.275  -8.010 -27.790  0.00  0.00    +0.000 C 
ATOM     14  C   UNL     1     -45.003  -6.990 -25.889  0.00  0.00    +0.000 C 
BRANCH   5  15
ATOM     15  O   UNL     1     -47.024  -6.761 -32.606  0.00  0.00    +0.000 OA
BRANCH  15  17
ATOM     16  C   UNL     1     -45.911  -6.410 -34.700  0.00  0.00    +0.000 C 
ATOM     17  C   UNL     1     -45.905  -7.162 -33.385  0.00  0.00    +0.000 C 
ENDBRANCH  15  17
ENDBRANCH   5  15
ENDBRANCH   1  10
BRANCH   2  18
ATOM     18  C   UNL     1     -44.987  -3.497 -32.368  0.00  0.00    +0.000 C 
BRANCH  18  19
ATOM     19  C   UNL     1     -44.234  -3.083 -33.621  0.00  0.00    +0.000 C 
BRANCH  19  20
ATOM     20  C   UNL     1     -42.915  -2.458 -33.263  0.00  0.00    +0.000 A 
ATOM     21  C   UNL     1     -41.713  -3.174 -33.493  0.00  0.00    +0.000 A 
ATOM     22  C   UNL     1     -40.508  -2.535 -33.166  0.00  0.00    +0.000 A 
ATOM     23  C   UNL     1     -40.517  -1.294 -32.595  0.00  0.00    +0.000 A 
ATOM     24  N   UNL     1     -41.655  -0.598 -32.364  0.00  0.00    +0.000 NA
ATOM     25  C   UNL     1     -42.857  -1.149 -32.705  0.00  0.00    +0.000 A 
ATOM     26  C   UNL     1     -44.094  -0.348 -32.477  0.00  0.00    +0.000 C 
ATOM     27  N   UNL     1     -39.271  -0.917 -32.274  0.00  0.00    +0.000 N 
ATOM     28  N   UNL     1     -38.429  -1.878 -32.627  0.00  0.00    +0.000 NA
ATOM     29  C   UNL     1     -39.153  -2.875 -33.192  0.00  0.00    +0.000 A 
ATOM     30  C   UNL     1     -38.874   0.322 -31.630  0.00  0.00    +0.000 C 
ATOM     31  C   UNL     1     -41.750  -4.585 -33.982  0.00  0.00    +0.000 C 
BRANCH  29  32
ATOM     32  O   UNL     1     -38.553  -4.026 -33.708  0.00  0.00    +0.000 OA
ATOM     33  C   UNL     1     -38.255  -4.187 -35.084  0.00  0.00    +0.000 C 
ENDBRANCH  29  32
ENDBRANCH  19  20
ENDBRANCH  18  19
ENDBRANCH   2  18
TORSDOF 7
ENDMDL
