MODEL 1
REMARK VINA RESULT:      -6.5      0.000      0.000
REMARK  Name = ZINC000065283276 ZINC65283276 ChemDiv-T480-0419 MolPort-010-948-687 PubChem-53190182
REMARK  2 active torsions:
REMARK  status: ('A' for Active; 'I' for Inactive)
REMARK    1  A    between atoms: C_8  and  C_17
REMARK    2  A    between atoms: N_19  and  C_21
REMARK                            x       y       z     vdW  Elec       q    Type
REMARK                         _______ _______ _______ _____ _____    ______ ____
ROOT
ATOM      1  C   UNL     1     -40.370  -3.092 -33.177  0.00  0.00    +0.000 C 
ATOM      2  C   UNL     1     -41.637  -2.362 -32.893  0.00  0.00    +0.000 A 
ATOM      3  C   UNL     1     -42.937  -2.861 -32.897  0.00  0.00    +0.000 A 
ATOM      4  C   UNL     1     -43.899  -1.877 -32.629  0.00  0.00    +0.000 A 
ATOM      5  C   UNL     1     -43.410  -0.596 -32.400  0.00  0.00    +0.000 A 
ATOM      6  S   UNL     1     -41.733  -0.720 -32.550  0.00  0.00    +0.000 S 
ATOM      7  N   UNL     1     -45.218  -2.184 -32.611  0.00  0.00    +0.000 NA
ATOM      8  C   UNL     1     -45.628  -3.462 -32.846  0.00  0.00    +0.000 A 
ATOM      9  N   UNL     1     -44.707  -4.433 -33.118  0.00  0.00    +0.000 NA
ATOM     10  C   UNL     1     -43.371  -4.172 -33.143  0.00  0.00    +0.000 A 
ATOM     11  N   UNL     1     -42.456  -5.233 -33.411  0.00  0.00    +0.000 N 
ATOM     12  C   UNL     1     -42.074  -5.492 -34.802  0.00  0.00    +0.000 C 
ATOM     13  C   UNL     1     -41.310  -6.810 -34.931  0.00  0.00    +0.000 C 
ATOM     14  O   UNL     1     -40.388  -6.933 -33.885  0.00  0.00    +0.000 OA
ATOM     15  C   UNL     1     -41.158  -7.233 -32.754  0.00  0.00    +0.000 C 
ATOM     16  C   UNL     1     -41.897  -5.983 -32.280  0.00  0.00    +0.000 C 
ENDROOT
BRANCH   8  17
ATOM     17  C   UNL     1     -47.064  -3.797 -32.845  0.00  0.00    +0.000 C 
ATOM     18  O   UNL     1     -47.717  -3.701 -33.916  0.00  0.00    +0.000 OA
ATOM     19  N   UNL     1     -47.756  -4.171 -31.646  0.00  0.00    +0.000 N 
ATOM     20  H   UNL     1     -48.685  -3.857 -31.548  0.00  0.00    +0.000 HD
BRANCH  19  21
ATOM     21  C   UNL     1     -47.221  -4.962 -30.577  0.00  0.00    +0.000 A 
ATOM     22  C   UNL     1     -47.071  -4.382 -29.312  0.00  0.00    +0.000 A 
ATOM     23  C   UNL     1     -46.586  -5.137 -28.239  0.00  0.00    +0.000 A 
ATOM     24  C   UNL     1     -46.256  -6.481 -28.429  0.00  0.00    +0.000 A 
ATOM     25  O   UNL     1     -45.789  -7.261 -27.367  0.00  0.00    +0.000 OA
ATOM     26  C   UNL     1     -45.727  -8.685 -27.478  0.00  0.00    +0.000 C 
ATOM     27  C   UNL     1     -45.259  -9.087 -28.878  0.00  0.00    +0.000 C 
ATOM     28  O   UNL     1     -46.026  -8.402 -29.871  0.00  0.00    +0.000 OA
ATOM     29  C   UNL     1     -46.394  -7.065 -29.695  0.00  0.00    +0.000 A 
ATOM     30  C   UNL     1     -46.893  -6.315 -30.761  0.00  0.00    +0.000 A 
ENDBRANCH  19  21
ENDBRANCH   8  17
TORSDOF 2
ENDMDL
MODEL 2
REMARK VINA RESULT:      -6.3     10.736     14.229
REMARK  Name = ZINC000065283276 ZINC65283276 ChemDiv-T480-0419 MolPort-010-948-687 PubChem-53190182
REMARK  2 active torsions:
REMARK  status: ('A' for Active; 'I' for Inactive)
REMARK    1  A    between atoms: C_8  and  C_17
REMARK    2  A    between atoms: N_19  and  C_21
REMARK                            x       y       z     vdW  Elec       q    Type
REMARK                         _______ _______ _______ _____ _____    ______ ____
ROOT
ATOM      1  C   UNL     1     -43.014 -12.326 -26.529  0.00  0.00    +0.000 C 
ATOM      2  C   UNL     1     -42.409 -13.597 -26.041  0.00  0.00    +0.000 A 
ATOM      3  C   UNL     1     -42.864 -14.898 -26.238  0.00  0.00    +0.000 A 
ATOM      4  C   UNL     1     -42.070 -15.857 -25.594  0.00  0.00    +0.000 A 
ATOM      5  C   UNL     1     -40.978 -15.365 -24.888  0.00  0.00    +0.000 A 
ATOM      6  S   UNL     1     -41.034 -13.689 -25.080  0.00  0.00    +0.000 S 
ATOM      7  N   UNL     1     -42.378 -17.174 -25.666  0.00  0.00    +0.000 NA
ATOM      8  C   UNL     1     -43.466 -17.585 -26.376  0.00  0.00    +0.000 A 
ATOM      9  N   UNL     1     -44.258 -16.666 -27.002  0.00  0.00    +0.000 NA
ATOM     10  C   UNL     1     -43.985 -15.333 -26.961  0.00  0.00    +0.000 A 
ATOM     11  N   UNL     1     -44.837 -14.423 -27.655  0.00  0.00    +0.000 N 
ATOM     12  C   UNL     1     -45.982 -13.852 -26.939  0.00  0.00    +0.000 C 
ATOM     13  C   UNL     1     -46.924 -13.121 -27.893  0.00  0.00    +0.000 C 
ATOM     14  O   UNL     1     -46.184 -12.363 -28.810  0.00  0.00    +0.000 OA
ATOM     15  C   UNL     1     -45.645 -13.298 -29.703  0.00  0.00    +0.000 C 
ATOM     16  C   UNL     1     -44.500 -14.057 -29.036  0.00  0.00    +0.000 C 
ENDROOT
BRANCH   8  17
ATOM     17  C   UNL     1     -43.816 -19.017 -26.441  0.00  0.00    +0.000 C 
ATOM     18  O   UNL     1     -43.472 -19.686 -27.449  0.00  0.00    +0.000 OA
ATOM     19  N   UNL     1     -44.589 -19.658 -25.417  0.00  0.00    +0.000 N 
ATOM     20  H   UNL     1     -45.232 -20.346 -25.707  0.00  0.00    +0.000 HD
BRANCH  19  21
ATOM     21  C   UNL     1     -44.511 -19.390 -24.011  0.00  0.00    +0.000 A 
ATOM     22  C   UNL     1     -45.462 -18.544 -23.428  0.00  0.00    +0.000 A 
ATOM     23  C   UNL     1     -45.436 -18.291 -22.052  0.00  0.00    +0.000 A 
ATOM     24  C   UNL     1     -44.459 -18.892 -21.255  0.00  0.00    +0.000 A 
ATOM     25  O   UNL     1     -44.425 -18.671 -19.875  0.00  0.00    +0.000 OA
ATOM     26  C   UNL     1     -43.626 -19.494 -19.021  0.00  0.00    +0.000 C 
ATOM     27  C   UNL     1     -42.290 -19.815 -19.695  0.00  0.00    +0.000 C 
ATOM     28  O   UNL     1     -42.509 -20.295 -21.023  0.00  0.00    +0.000 OA
ATOM     29  C   UNL     1     -43.498 -19.732 -21.834  0.00  0.00    +0.000 A 
ATOM     30  C   UNL     1     -43.535 -19.995 -23.204  0.00  0.00    +0.000 A 
ENDBRANCH  19  21
ENDBRANCH   8  17
TORSDOF 2
ENDMDL
MODEL 3
REMARK VINA RESULT:      -6.0     14.561     18.175
REMARK  Name = ZINC000065283276 ZINC65283276 ChemDiv-T480-0419 MolPort-010-948-687 PubChem-53190182
REMARK  2 active torsions:
REMARK  status: ('A' for Active; 'I' for Inactive)
REMARK    1  A    between atoms: C_8  and  C_17
REMARK    2  A    between atoms: N_19  and  C_21
REMARK                            x       y       z     vdW  Elec       q    Type
REMARK                         _______ _______ _______ _____ _____    ______ ____
ROOT
ATOM      1  C   UNL     1     -45.330 -15.858 -24.066  0.00  0.00    +0.000 C 
ATOM      2  C   UNL     1     -45.522 -15.933 -22.591  0.00  0.00    +0.000 A 
ATOM      3  C   UNL     1     -45.309 -17.023 -21.749  0.00  0.00    +0.000 A 
ATOM      4  C   UNL     1     -45.635 -16.752 -20.413  0.00  0.00    +0.000 A 
ATOM      5  C   UNL     1     -46.099 -15.468 -20.151  0.00  0.00    +0.000 A 
ATOM      6  S   UNL     1     -46.100 -14.674 -21.640  0.00  0.00    +0.000 S 
ATOM      7  N   UNL     1     -45.507 -17.706 -19.461  0.00  0.00    +0.000 NA
ATOM      8  C   UNL     1     -45.047 -18.946 -19.791  0.00  0.00    +0.000 A 
ATOM      9  N   UNL     1     -44.732 -19.233 -21.089  0.00  0.00    +0.000 NA
ATOM     10  C   UNL     1     -44.843 -18.305 -22.078  0.00  0.00    +0.000 A 
ATOM     11  N   UNL     1     -44.476 -18.656 -23.412  0.00  0.00    +0.000 N 
ATOM     12  C   UNL     1     -45.507 -19.208 -24.297  0.00  0.00    +0.000 C 
ATOM     13  C   UNL     1     -44.893 -19.770 -25.578  0.00  0.00    +0.000 C 
ATOM     14  O   UNL     1     -43.906 -18.900 -26.059  0.00  0.00    +0.000 OA
ATOM     15  C   UNL     1     -42.817 -19.075 -25.196  0.00  0.00    +0.000 C 
ATOM     16  C   UNL     1     -43.100 -18.402 -23.854  0.00  0.00    +0.000 C 
ENDROOT
BRANCH   8  17
ATOM     17  C   UNL     1     -44.922 -19.994 -18.760  0.00  0.00    +0.000 C 
ATOM     18  O   UNL     1     -45.885 -20.780 -18.566  0.00  0.00    +0.000 OA
ATOM     19  N   UNL     1     -43.759 -20.107 -17.929  0.00  0.00    +0.000 N 
ATOM     20  H   UNL     1     -43.903 -20.375 -16.992  0.00  0.00    +0.000 HD
BRANCH  19  21
ATOM     21  C   UNL     1     -42.406 -19.867 -18.337  0.00  0.00    +0.000 A 
ATOM     22  C   UNL     1     -41.708 -18.792 -17.774  0.00  0.00    +0.000 A 
ATOM     23  C   UNL     1     -40.375 -18.552 -18.124  0.00  0.00    +0.000 A 
ATOM     24  C   UNL     1     -39.734 -19.396 -19.034  0.00  0.00    +0.000 A 
ATOM     25  O   UNL     1     -38.396 -19.189 -19.383  0.00  0.00    +0.000 OA
ATOM     26  C   UNL     1     -37.656 -20.197 -20.076  0.00  0.00    +0.000 C 
ATOM     27  C   UNL     1     -38.540 -20.874 -21.127  0.00  0.00    +0.000 C 
ATOM     28  O   UNL     1     -39.780 -21.279 -20.543  0.00  0.00    +0.000 OA
ATOM     29  C   UNL     1     -40.430 -20.468 -19.609  0.00  0.00    +0.000 A 
ATOM     30  C   UNL     1     -41.755 -20.715 -19.247  0.00  0.00    +0.000 A 
ENDBRANCH  19  21
ENDBRANCH   8  17
TORSDOF 2
ENDMDL
