MODEL 1
REMARK VINA RESULT:      -6.9      0.000      0.000
REMARK  Name = ZINC000065211166 MolPort-010-919-017
REMARK  6 active torsions:
REMARK  status: ('A' for Active; 'I' for Inactive)
REMARK    1  A    between atoms: C_3  and  C_4
REMARK    2  A    between atoms: C_5  and  S_27
REMARK    3  A    between atoms: C_6  and  C_7
REMARK    4  A    between atoms: C_6  and  S_27
REMARK    5  A    between atoms: C_8  and  C_9
REMARK    6  A    between atoms: C_8  and  N_23
REMARK                            x       y       z     vdW  Elec       q    Type
REMARK                         _______ _______ _______ _____ _____    ______ ____
ROOT
ATOM      1  C   UNL     1     -42.728 -20.395 -23.224  0.00  0.00    +0.000 C 
ENDROOT
BRANCH   1   2
ATOM      2  C   UNL     1     -42.787 -20.326 -21.739  0.00  0.00    +0.000 C 
ATOM      3  N   UNL     1     -43.805 -19.549 -21.105  0.00  0.00    +0.000 NA
ATOM      4  O   UNL     1     -41.934 -20.948 -21.053  0.00  0.00    +0.000 OA
BRANCH   3   5
ATOM      5  C   UNL     1     -43.922 -19.466 -19.658  0.00  0.00    +0.000 C 
BRANCH   5   6
ATOM      6  C   UNL     1     -44.600 -18.184 -19.280  0.00  0.00    +0.000 A 
ATOM      7  C   UNL     1     -46.001 -18.062 -19.384  0.00  0.00    +0.000 A 
ATOM      8  C   UNL     1     -46.853 -19.199 -19.841  0.00  0.00    +0.000 C 
ATOM      9  C   UNL     1     -46.623 -16.854 -19.056  0.00  0.00    +0.000 A 
ATOM     10  C   UNL     1     -45.864 -15.764 -18.628  0.00  0.00    +0.000 A 
ATOM     11  C   UNL     1     -46.534 -14.483 -18.280  0.00  0.00    +0.000 C 
ATOM     12  C   UNL     1     -44.477 -15.875 -18.529  0.00  0.00    +0.000 A 
ATOM     13  C   UNL     1     -43.839 -17.075 -18.854  0.00  0.00    +0.000 A 
ATOM     14  C   UNL     1     -42.354 -17.146 -18.737  0.00  0.00    +0.000 C 
ENDBRANCH   5   6
ENDBRANCH   3   5
ENDBRANCH   1   2
BRANCH   1  15
ATOM     15  S   UNL     1     -41.901 -18.917 -23.883  0.00  0.00    +0.000 S 
BRANCH  15  17
ATOM     16  C   UNL     1     -43.254 -19.345 -26.332  0.00  0.00    +0.000 A 
ATOM     17  C   UNL     1     -42.061 -19.483 -25.578  0.00  0.00    +0.000 A 
ATOM     18  C   UNL     1     -40.956 -20.474 -27.442  0.00  0.00    +0.000 A 
ATOM     19  C   UNL     1     -42.104 -20.358 -28.221  0.00  0.00    +0.000 A 
ATOM     20  C   UNL     1     -43.247 -19.792 -27.661  0.00  0.00    +0.000 A 
ATOM     21  N   UNL     1     -40.961 -20.038 -26.157  0.00  0.00    +0.000 NA
BRANCH  16  24
ATOM     22  C   UNL     1     -46.602 -16.119 -24.706  0.00  0.00    +0.000 C 
ATOM     23  C   UNL     1     -45.923 -17.372 -25.128  0.00  0.00    +0.000 A 
ATOM     24  C   UNL     1     -44.511 -18.751 -25.813  0.00  0.00    +0.000 A 
ATOM     25  N   UNL     1     -44.653 -17.429 -25.564  0.00  0.00    +0.000 NA
ATOM     26  N   UNL     1     -45.639 -19.438 -25.544  0.00  0.00    +0.000 NA
ATOM     27  O   UNL     1     -46.487 -18.552 -25.122  0.00  0.00    +0.000 OA
ENDBRANCH  16  24
ENDBRANCH  15  17
ENDBRANCH   1  15
TORSDOF 6
ENDMDL
MODEL 2
REMARK VINA RESULT:      -6.1     11.688     15.241
REMARK  Name = ZINC000065211166 MolPort-010-919-017
REMARK  6 active torsions:
REMARK  status: ('A' for Active; 'I' for Inactive)
REMARK    1  A    between atoms: C_3  and  C_4
REMARK    2  A    between atoms: C_5  and  S_27
REMARK    3  A    between atoms: C_6  and  C_7
REMARK    4  A    between atoms: C_6  and  S_27
REMARK    5  A    between atoms: C_8  and  C_9
REMARK    6  A    between atoms: C_8  and  N_23
REMARK                            x       y       z     vdW  Elec       q    Type
REMARK                         _______ _______ _______ _____ _____    ______ ____
ROOT
ATOM      1  C   UNL     1     -46.917  -6.743 -29.187  0.00  0.00    +0.000 C 
ENDROOT
BRANCH   1   2
ATOM      2  C   UNL     1     -45.850  -6.628 -30.218  0.00  0.00    +0.000 C 
ATOM      3  N   UNL     1     -46.149  -6.043 -31.486  0.00  0.00    +0.000 NA
ATOM      4  O   UNL     1     -44.693  -7.056 -29.965  0.00  0.00    +0.000 OA
BRANCH   3   5
ATOM      5  C   UNL     1     -45.138  -5.886 -32.520  0.00  0.00    +0.000 C 
BRANCH   5   6
ATOM      6  C   UNL     1     -44.743  -4.444 -32.625  0.00  0.00    +0.000 A 
ATOM      7  C   UNL     1     -45.579  -3.524 -33.292  0.00  0.00    +0.000 A 
ATOM      8  C   UNL     1     -46.884  -3.940 -33.885  0.00  0.00    +0.000 C 
ATOM      9  C   UNL     1     -45.191  -2.187 -33.409  0.00  0.00    +0.000 A 
ATOM     10  C   UNL     1     -43.977  -1.755 -32.872  0.00  0.00    +0.000 A 
ATOM     11  C   UNL     1     -43.572  -0.331 -33.000  0.00  0.00    +0.000 C 
ATOM     12  C   UNL     1     -43.142  -2.661 -32.217  0.00  0.00    +0.000 A 
ATOM     13  C   UNL     1     -43.515  -4.002 -32.091  0.00  0.00    +0.000 A 
ATOM     14  C   UNL     1     -42.589  -4.935 -31.386  0.00  0.00    +0.000 C 
ENDBRANCH   5   6
ENDBRANCH   3   5
ENDBRANCH   1   2
BRANCH   1  15
ATOM     15  S   UNL     1     -47.301  -8.493 -28.882  0.00  0.00    +0.000 S 
BRANCH  15  17
ATOM     16  C   UNL     1     -46.225  -9.605 -26.511  0.00  0.00    +0.000 A 
ATOM     17  C   UNL     1     -46.606  -8.442 -27.229  0.00  0.00    +0.000 A 
ATOM     18  C   UNL     1     -45.869  -7.054 -25.438  0.00  0.00    +0.000 A 
ATOM     19  C   UNL     1     -45.478  -8.167 -24.698  0.00  0.00    +0.000 A 
ATOM     20  C   UNL     1     -45.658  -9.437 -25.241  0.00  0.00    +0.000 A 
ATOM     21  N   UNL     1     -46.414  -7.215 -26.670  0.00  0.00    +0.000 NA
BRANCH  16  24
ATOM     22  C   UNL     1     -45.442 -13.852 -28.880  0.00  0.00    +0.000 C 
ATOM     23  C   UNL     1     -46.033 -12.789 -28.026  0.00  0.00    +0.000 A 
ATOM     24  C   UNL     1     -46.378 -10.991 -27.020  0.00  0.00    +0.000 A 
ATOM     25  N   UNL     1     -45.489 -11.571 -27.857  0.00  0.00    +0.000 NA
ATOM     26  N   UNL     1     -47.392 -11.823 -26.705  0.00  0.00    +0.000 NA
ATOM     27  O   UNL     1     -47.143 -12.922 -27.348  0.00  0.00    +0.000 OA
ENDBRANCH  16  24
ENDBRANCH  15  17
ENDBRANCH   1  15
TORSDOF 6
ENDMDL
MODEL 3
REMARK VINA RESULT:      -6.1      3.102      5.516
REMARK  Name = ZINC000065211166 MolPort-010-919-017
REMARK  6 active torsions:
REMARK  status: ('A' for Active; 'I' for Inactive)
REMARK    1  A    between atoms: C_3  and  C_4
REMARK    2  A    between atoms: C_5  and  S_27
REMARK    3  A    between atoms: C_6  and  C_7
REMARK    4  A    between atoms: C_6  and  S_27
REMARK    5  A    between atoms: C_8  and  C_9
REMARK    6  A    between atoms: C_8  and  N_23
REMARK                            x       y       z     vdW  Elec       q    Type
REMARK                         _______ _______ _______ _____ _____    ______ ____
ROOT
ATOM      1  C   UNL     1     -43.063 -17.086 -27.037  0.00  0.00    +0.000 C 
ENDROOT
BRANCH   1   2
ATOM      2  C   UNL     1     -43.838 -18.080 -26.246  0.00  0.00    +0.000 C 
ATOM      3  N   UNL     1     -43.150 -19.053 -25.458  0.00  0.00    +0.000 NA
ATOM      4  O   UNL     1     -45.097 -18.060 -26.284  0.00  0.00    +0.000 OA
BRANCH   3   5
ATOM      5  C   UNL     1     -43.858 -20.031 -24.649  0.00  0.00    +0.000 C 
BRANCH   5   6
ATOM      6  C   UNL     1     -43.437 -19.901 -23.217  0.00  0.00    +0.000 A 
ATOM      7  C   UNL     1     -42.311 -20.603 -22.739  0.00  0.00    +0.000 A 
ATOM      8  C   UNL     1     -41.489 -21.467 -23.638  0.00  0.00    +0.000 C 
ATOM      9  C   UNL     1     -41.940 -20.498 -21.396  0.00  0.00    +0.000 A 
ATOM     10  C   UNL     1     -42.682 -19.703 -20.521  0.00  0.00    +0.000 A 
ATOM     11  C   UNL     1     -42.281 -19.596 -19.093  0.00  0.00    +0.000 C 
ATOM     12  C   UNL     1     -43.802 -19.012 -20.984  0.00  0.00    +0.000 A 
ATOM     13  C   UNL     1     -44.186 -19.107 -22.324  0.00  0.00    +0.000 A 
ATOM     14  C   UNL     1     -45.392 -18.352 -22.774  0.00  0.00    +0.000 C 
ENDBRANCH   5   6
ENDBRANCH   3   5
ENDBRANCH   1   2
BRANCH   1  15
ATOM     15  S   UNL     1     -42.933 -15.525 -26.116  0.00  0.00    +0.000 S 
BRANCH  15  17
ATOM     16  C   UNL     1     -45.399 -14.208 -26.567  0.00  0.00    +0.000 A 
ATOM     17  C   UNL     1     -44.201 -14.737 -27.113  0.00  0.00    +0.000 A 
ATOM     18  C   UNL     1     -44.838 -14.021 -29.294  0.00  0.00    +0.000 A 
ATOM     19  C   UNL     1     -46.025 -13.486 -28.803  0.00  0.00    +0.000 A 
ATOM     20  C   UNL     1     -46.299 -13.582 -27.441  0.00  0.00    +0.000 A 
ATOM     21  N   UNL     1     -43.964 -14.624 -28.448  0.00  0.00    +0.000 NA
BRANCH  16  24
ATOM     22  C   UNL     1     -45.832 -13.109 -21.785  0.00  0.00    +0.000 C 
ATOM     23  C   UNL     1     -45.942 -13.786 -23.104  0.00  0.00    +0.000 A 
ATOM     24  C   UNL     1     -45.762 -14.265 -25.129  0.00  0.00    +0.000 A 
ATOM     25  N   UNL     1     -45.391 -13.319 -24.238  0.00  0.00    +0.000 NA
ATOM     26  N   UNL     1     -46.498 -15.238 -24.555  0.00  0.00    +0.000 NA
ATOM     27  O   UNL     1     -46.586 -14.907 -23.303  0.00  0.00    +0.000 OA
ENDBRANCH  16  24
ENDBRANCH  15  17
ENDBRANCH   1  15
TORSDOF 6
ENDMDL
