MODEL 1
REMARK VINA RESULT:      -5.5      0.000      0.000
REMARK  Name = ZINC000006509149 ZINC06509149 PubChem-7987030
REMARK  8 active torsions:
REMARK  status: ('A' for Active; 'I' for Inactive)
REMARK    1  A    between atoms: C_2  and  C_3
REMARK    2  A    between atoms: C_3  and  C_4
REMARK    3  A    between atoms: C_4  and  N_24
REMARK    4  A    between atoms: C_5  and  C_17
REMARK    5  A    between atoms: C_6  and  C_9
REMARK    6  A    between atoms: C_10  and  C_11
REMARK    7  A    between atoms: C_10  and  N_25
REMARK    8  A    between atoms: C_20  and  O_28
REMARK                            x       y       z     vdW  Elec       q    Type
REMARK                         _______ _______ _______ _____ _____    ______ ____
ROOT
ATOM      1  C   UNL     1     -44.147 -17.060 -22.919  0.00  0.00    +0.000 C 
ATOM      2  C   UNL     1     -45.136 -18.176 -22.535  0.00  0.00    +0.000 C 
ATOM      3  C   UNL     1     -45.637 -18.834 -23.828  0.00  0.00    +0.000 C 
ATOM      4  C   UNL     1     -44.996 -18.024 -24.883  0.00  0.00    +0.000 C 
ATOM      5  N   UNL     1     -44.151 -17.015 -24.372  0.00  0.00    +0.000 N 
ATOM      6  O   UNL     1     -45.165 -18.222 -26.115  0.00  0.00    +0.000 OA
ENDROOT
BRANCH   1   7
ATOM      7  C   UNL     1     -44.562 -15.745 -22.335  0.00  0.00    +0.000 A 
ATOM      8  C   UNL     1     -43.615 -14.839 -21.834  0.00  0.00    +0.000 A 
ATOM      9  C   UNL     1     -44.030 -13.622 -21.288  0.00  0.00    +0.000 A 
ATOM     10  C   UNL     1     -45.395 -13.298 -21.237  0.00  0.00    +0.000 A 
ATOM     11  C   UNL     1     -46.335 -14.205 -21.737  0.00  0.00    +0.000 A 
ATOM     12  C   UNL     1     -45.921 -15.423 -22.284  0.00  0.00    +0.000 A 
BRANCH  10  14
ATOM     13  C   UNL     1     -46.939 -12.008 -19.799  0.00  0.00    +0.000 C 
ATOM     14  O   UNL     1     -45.842 -12.088 -20.698  0.00  0.00    +0.000 OA
ENDBRANCH  10  14
ENDBRANCH   1   7
BRANCH   2  15
ATOM     15  C   UNL     1     -44.515 -19.173 -21.602  0.00  0.00    +0.000 C 
ATOM     16  N   UNL     1     -45.050 -19.453 -20.303  0.00  0.00    +0.000 NA
ATOM     17  O   UNL     1     -43.489 -19.795 -21.983  0.00  0.00    +0.000 OA
BRANCH  16  18
ATOM     18  C   UNL     1     -46.221 -18.789 -19.749  0.00  0.00    +0.000 C 
BRANCH  18  19
ATOM     19  C   UNL     1     -45.829 -17.482 -19.160  0.00  0.00    +0.000 A 
ATOM     20  C   UNL     1     -46.814 -16.557 -18.796  0.00  0.00    +0.000 A 
ATOM     21  C   UNL     1     -46.448 -15.334 -18.225  0.00  0.00    +0.000 A 
ATOM     22  C   UNL     1     -45.098 -15.038 -18.014  0.00  0.00    +0.000 A 
ATOM     23  C   UNL     1     -44.114 -15.965 -18.369  0.00  0.00    +0.000 A 
ATOM     24  C   UNL     1     -44.479 -17.188 -18.940  0.00  0.00    +0.000 A 
ATOM     25 CL   UNL     1     -44.640 -13.507 -17.298  0.00  0.00    +0.000 Cl
ENDBRANCH  18  19
ENDBRANCH  16  18
ENDBRANCH   2  15
BRANCH   5  26
ATOM     26  C   UNL     1     -43.309 -16.148 -25.185  0.00  0.00    +0.000 C 
BRANCH  26  27
ATOM     27  C   UNL     1     -44.157 -15.080 -25.859  0.00  0.00    +0.000 C 
BRANCH  27  29
ATOM     28  C   UNL     1     -45.033 -12.914 -24.997  0.00  0.00    +0.000 C 
ATOM     29  C   UNL     1     -43.785 -13.704 -25.337  0.00  0.00    +0.000 C 
ENDBRANCH  27  29
ENDBRANCH  26  27
ENDBRANCH   5  26
TORSDOF 8
ENDMDL
MODEL 2
REMARK VINA RESULT:      -5.3     12.113     16.156
REMARK  Name = ZINC000006509149 ZINC06509149 PubChem-7987030
REMARK  8 active torsions:
REMARK  status: ('A' for Active; 'I' for Inactive)
REMARK    1  A    between atoms: C_2  and  C_3
REMARK    2  A    between atoms: C_3  and  C_4
REMARK    3  A    between atoms: C_4  and  N_24
REMARK    4  A    between atoms: C_5  and  C_17
REMARK    5  A    between atoms: C_6  and  C_9
REMARK    6  A    between atoms: C_10  and  C_11
REMARK    7  A    between atoms: C_10  and  N_25
REMARK    8  A    between atoms: C_20  and  O_28
REMARK                            x       y       z     vdW  Elec       q    Type
REMARK                         _______ _______ _______ _____ _____    ______ ____
ROOT
ATOM      1  C   UNL     1     -44.979  -5.539 -30.377  0.00  0.00    +0.000 C 
ATOM      2  C   UNL     1     -46.288  -5.251 -31.133  0.00  0.00    +0.000 C 
ATOM      3  C   UNL     1     -47.287  -6.367 -30.799  0.00  0.00    +0.000 C 
ATOM      4  C   UNL     1     -46.494  -7.279 -29.951  0.00  0.00    +0.000 C 
ATOM      5  N   UNL     1     -45.183  -6.815 -29.710  0.00  0.00    +0.000 N 
ATOM      6  O   UNL     1     -46.943  -8.354 -29.471  0.00  0.00    +0.000 OA
ENDROOT
BRANCH   1   7
ATOM      7  C   UNL     1     -43.814  -5.598 -31.316  0.00  0.00    +0.000 A 
ATOM      8  C   UNL     1     -43.894  -6.294 -32.532  0.00  0.00    +0.000 A 
ATOM      9  C   UNL     1     -42.790  -6.339 -33.387  0.00  0.00    +0.000 A 
ATOM     10  C   UNL     1     -41.596  -5.690 -33.036  0.00  0.00    +0.000 A 
ATOM     11  C   UNL     1     -41.521  -4.998 -31.823  0.00  0.00    +0.000 A 
ATOM     12  C   UNL     1     -42.625  -4.952 -30.966  0.00  0.00    +0.000 A 
BRANCH  10  14
ATOM     13  C   UNL     1     -39.712  -4.553 -34.166  0.00  0.00    +0.000 C 
ATOM     14  O   UNL     1     -40.474  -5.715 -33.870  0.00  0.00    +0.000 OA
ENDBRANCH  10  14
ENDBRANCH   1   7
BRANCH   2  15
ATOM     15  C   UNL     1     -46.833  -3.892 -30.805  0.00  0.00    +0.000 C 
ATOM     16  N   UNL     1     -46.747  -2.786 -31.711  0.00  0.00    +0.000 NA
ATOM     17  O   UNL     1     -47.399  -3.725 -29.693  0.00  0.00    +0.000 OA
BRANCH  16  18
ATOM     18  C   UNL     1     -46.106  -2.856 -33.016  0.00  0.00    +0.000 C 
BRANCH  18  19
ATOM     19  C   UNL     1     -44.783  -2.180 -32.966  0.00  0.00    +0.000 A 
ATOM     20  C   UNL     1     -43.718  -2.672 -33.729  0.00  0.00    +0.000 A 
ATOM     21  C   UNL     1     -42.478  -2.028 -33.697  0.00  0.00    +0.000 A 
ATOM     22  C   UNL     1     -42.303  -0.889 -32.907  0.00  0.00    +0.000 A 
ATOM     23  C   UNL     1     -43.368  -0.391 -32.150  0.00  0.00    +0.000 A 
ATOM     24  C   UNL     1     -44.610  -1.035 -32.181  0.00  0.00    +0.000 A 
ATOM     25 CL   UNL     1     -40.750  -0.081 -32.867  0.00  0.00    +0.000 Cl
ENDBRANCH  18  19
ENDBRANCH  16  18
ENDBRANCH   2  15
BRANCH   5  26
ATOM     26  C   UNL     1     -44.227  -7.456 -28.819  0.00  0.00    +0.000 C 
BRANCH  26  27
ATOM     27  C   UNL     1     -43.774  -6.478 -27.747  0.00  0.00    +0.000 C 
BRANCH  27  29
ATOM     28  C   UNL     1     -41.669  -7.546 -28.540  0.00  0.00    +0.000 C 
ATOM     29  C   UNL     1     -42.270  -6.554 -27.562  0.00  0.00    +0.000 C 
ENDBRANCH  27  29
ENDBRANCH  26  27
ENDBRANCH   5  26
TORSDOF 8
ENDMDL
MODEL 3
REMARK VINA RESULT:      -5.2     10.440     13.969
REMARK  Name = ZINC000006509149 ZINC06509149 PubChem-7987030
REMARK  8 active torsions:
REMARK  status: ('A' for Active; 'I' for Inactive)
REMARK    1  A    between atoms: C_2  and  C_3
REMARK    2  A    between atoms: C_3  and  C_4
REMARK    3  A    between atoms: C_4  and  N_24
REMARK    4  A    between atoms: C_5  and  C_17
REMARK    5  A    between atoms: C_6  and  C_9
REMARK    6  A    between atoms: C_10  and  C_11
REMARK    7  A    between atoms: C_10  and  N_25
REMARK    8  A    between atoms: C_20  and  O_28
REMARK                            x       y       z     vdW  Elec       q    Type
REMARK                         _______ _______ _______ _____ _____    ______ ____
ROOT
ATOM      1  C   UNL     1     -45.373  -5.175 -31.725  0.00  0.00    +0.000 C 
ATOM      2  C   UNL     1     -46.525  -5.714 -32.593  0.00  0.00    +0.000 C 
ATOM      3  C   UNL     1     -46.917  -4.621 -33.596  0.00  0.00    +0.000 C 
ATOM      4  C   UNL     1     -46.051  -3.489 -33.210  0.00  0.00    +0.000 C 
ATOM      5  N   UNL     1     -45.175  -3.798 -32.147  0.00  0.00    +0.000 N 
ATOM      6  O   UNL     1     -46.072  -2.367 -33.781  0.00  0.00    +0.000 OA
ENDROOT
BRANCH   1   7
ATOM      7  C   UNL     1     -45.713  -5.251 -30.268  0.00  0.00    +0.000 A 
ATOM      8  C   UNL     1     -44.839  -5.850 -29.348  0.00  0.00    +0.000 A 
ATOM      9  C   UNL     1     -45.183  -5.914 -27.995  0.00  0.00    +0.000 A 
ATOM     10  C   UNL     1     -46.404  -5.381 -27.550  0.00  0.00    +0.000 A 
ATOM     11  C   UNL     1     -47.270  -4.786 -28.471  0.00  0.00    +0.000 A 
ATOM     12  C   UNL     1     -46.928  -4.721 -29.825  0.00  0.00    +0.000 A 
BRANCH  10  14
ATOM     13  C   UNL     1     -46.305  -6.430 -25.312  0.00  0.00    +0.000 C 
ATOM     14  O   UNL     1     -46.776  -5.429 -26.203  0.00  0.00    +0.000 OA
ENDBRANCH  10  14
ENDBRANCH   1   7
BRANCH   2  15
ATOM     15  C   UNL     1     -46.153  -6.997 -33.277  0.00  0.00    +0.000 C 
ATOM     16  N   UNL     1     -46.720  -8.260 -32.911  0.00  0.00    +0.000 NA
ATOM     17  O   UNL     1     -45.316  -6.956 -34.216  0.00  0.00    +0.000 OA
BRANCH  16  18
ATOM     18  C   UNL     1     -47.684  -8.433 -31.834  0.00  0.00    +0.000 C 
BRANCH  18  19
ATOM     19  C   UNL     1     -46.977  -8.790 -30.575  0.00  0.00    +0.000 A 
ATOM     20  C   UNL     1     -47.629  -8.650 -29.345  0.00  0.00    +0.000 A 
ATOM     21  C   UNL     1     -46.972  -9.002 -28.162  0.00  0.00    +0.000 A 
ATOM     22  C   UNL     1     -45.667  -9.499 -28.209  0.00  0.00    +0.000 A 
ATOM     23  C   UNL     1     -45.018  -9.648 -29.438  0.00  0.00    +0.000 A 
ATOM     24  C   UNL     1     -45.674  -9.296 -30.623  0.00  0.00    +0.000 A 
ATOM     25 CL   UNL     1     -44.844  -9.940 -26.728  0.00  0.00    +0.000 Cl
ENDBRANCH  18  19
ENDBRANCH  16  18
ENDBRANCH   2  15
BRANCH   5  26
ATOM     26  C   UNL     1     -44.138  -2.909 -31.642  0.00  0.00    +0.000 C 
BRANCH  26  27
ATOM     27  C   UNL     1     -42.832  -3.155 -32.382  0.00  0.00    +0.000 C 
BRANCH  27  29
ATOM     28  C   UNL     1     -43.200  -0.702 -32.615  0.00  0.00    +0.000 C 
ATOM     29  C   UNL     1     -42.370  -1.886 -33.074  0.00  0.00    +0.000 C 
ENDBRANCH  27  29
ENDBRANCH  26  27
ENDBRANCH   5  26
TORSDOF 8
ENDMDL
