MODEL 1
REMARK VINA RESULT:      -6.7      0.000      0.000
REMARK  Name = ZINC000072241411 ZINC72241411 PubChem-95739681
REMARK  2 active torsions:
REMARK  status: ('A' for Active; 'I' for Inactive)
REMARK    1  A    between atoms: C_5  and  C_6
REMARK    2  A    between atoms: C_7  and  C_11
REMARK                            x       y       z     vdW  Elec       q    Type
REMARK                         _______ _______ _______ _____ _____    ______ ____
ROOT
ATOM      1  C   UNL     1     -46.006 -18.192 -20.257  0.00  0.00    +0.000 C 
ATOM      2  C   UNL     1     -44.546 -18.296 -20.742  0.00  0.00    +0.000 C 
ATOM      3  C   UNL     1     -44.402 -20.087 -18.980  0.00  0.00    +0.000 C 
ATOM      4  C   UNL     1     -45.856 -19.897 -18.695  0.00  0.00    +0.000 C 
ATOM      5  C   UNL     1     -42.309 -19.234 -20.060  0.00  0.00    +0.000 C 
ATOM      6  N   UNL     1     -43.757 -19.219 -19.920  0.00  0.00    +0.000 N 
ATOM      7  O   UNL     1     -43.749 -20.962 -18.351  0.00  0.00    +0.000 OA
ATOM      8  O   UNL     1     -46.542 -19.436 -19.840  0.00  0.00    +0.000 OA
ENDROOT
BRANCH   1  13
ATOM      9  C   UNL     1     -44.138 -12.381 -15.951  0.00  0.00    +0.000 C 
ATOM     10  C   UNL     1     -44.810 -13.487 -16.683  0.00  0.00    +0.000 A 
ATOM     11  C   UNL     1     -44.198 -14.343 -17.579  0.00  0.00    +0.000 A 
ATOM     12  C   UNL     1     -45.258 -15.149 -17.948  0.00  0.00    +0.000 A 
ATOM     13  C   UNL     1     -46.240 -17.078 -19.277  0.00  0.00    +0.000 C 
ATOM     14  N   UNL     1     -46.393 -14.792 -17.319  0.00  0.00    +0.000 NA
ATOM     15  N   UNL     1     -45.155 -16.227 -18.882  0.00  0.00    +0.000 NA
ATOM     16  O   UNL     1     -46.082 -13.784 -16.563  0.00  0.00    +0.000 OA
ATOM     17  O   UNL     1     -47.390 -16.926 -18.789  0.00  0.00    +0.000 OA
ENDBRANCH   1  13
BRANCH   2  18
ATOM     18  C   UNL     1     -44.499 -18.696 -22.186  0.00  0.00    +0.000 A 
ATOM     19  C   UNL     1     -43.564 -19.633 -22.649  0.00  0.00    +0.000 A 
ATOM     20  C   UNL     1     -43.534 -19.985 -24.002  0.00  0.00    +0.000 A 
ATOM     21  C   UNL     1     -44.435 -19.400 -24.895  0.00  0.00    +0.000 A 
ATOM     22  C   UNL     1     -45.366 -18.462 -24.438  0.00  0.00    +0.000 A 
ATOM     23  C   UNL     1     -45.397 -18.111 -23.085  0.00  0.00    +0.000 A 
ATOM     24 CL   UNL     1     -44.398 -19.839 -26.589  0.00  0.00    +0.000 Cl
ENDBRANCH   2  18
TORSDOF 2
ENDMDL
MODEL 2
REMARK VINA RESULT:      -6.4      5.357      6.773
REMARK  Name = ZINC000072241411 ZINC72241411 PubChem-95739681
REMARK  2 active torsions:
REMARK  status: ('A' for Active; 'I' for Inactive)
REMARK    1  A    between atoms: C_5  and  C_6
REMARK    2  A    between atoms: C_7  and  C_11
REMARK                            x       y       z     vdW  Elec       q    Type
REMARK                         _______ _______ _______ _____ _____    ______ ____
ROOT
ATOM      1  C   UNL     1     -44.484 -16.236 -23.884  0.00  0.00    +0.000 C 
ATOM      2  C   UNL     1     -45.090 -17.650 -23.789  0.00  0.00    +0.000 C 
ATOM      3  C   UNL     1     -43.493 -18.138 -25.672  0.00  0.00    +0.000 C 
ATOM      4  C   UNL     1     -42.975 -16.741 -25.569  0.00  0.00    +0.000 C 
ATOM      5  C   UNL     1     -45.268 -19.806 -25.082  0.00  0.00    +0.000 C 
ATOM      6  N   UNL     1     -44.603 -18.532 -24.855  0.00  0.00    +0.000 N 
ATOM      7  O   UNL     1     -42.995 -18.932 -26.514  0.00  0.00    +0.000 OA
ATOM      8  O   UNL     1     -43.116 -16.243 -24.255  0.00  0.00    +0.000 OA
ENDROOT
BRANCH   1  13
ATOM      9  C   UNL     1     -46.565  -9.562 -26.513  0.00  0.00    +0.000 C 
ATOM     10  C   UNL     1     -46.405 -10.998 -26.168  0.00  0.00    +0.000 A 
ATOM     11  C   UNL     1     -45.423 -11.521 -25.350  0.00  0.00    +0.000 A 
ATOM     12  C   UNL     1     -45.737 -12.866 -25.375  0.00  0.00    +0.000 A 
ATOM     13  C   UNL     1     -45.317 -15.273 -24.680  0.00  0.00    +0.000 C 
ATOM     14  N   UNL     1     -46.814 -13.107 -26.146  0.00  0.00    +0.000 NA
ATOM     15  N   UNL     1     -45.006 -13.873 -24.670  0.00  0.00    +0.000 NA
ATOM     16  O   UNL     1     -47.190 -11.953 -26.608  0.00  0.00    +0.000 OA
ATOM     17  O   UNL     1     -46.304 -15.710 -25.327  0.00  0.00    +0.000 OA
ENDBRANCH   1  13
BRANCH   2  18
ATOM     18  C   UNL     1     -44.823 -18.248 -22.441  0.00  0.00    +0.000 A 
ATOM     19  C   UNL     1     -43.562 -18.769 -22.115  0.00  0.00    +0.000 A 
ATOM     20  C   UNL     1     -43.339 -19.329 -20.853  0.00  0.00    +0.000 A 
ATOM     21  C   UNL     1     -44.374 -19.371 -19.915  0.00  0.00    +0.000 A 
ATOM     22  C   UNL     1     -45.633 -18.855 -20.238  0.00  0.00    +0.000 A 
ATOM     23  C   UNL     1     -45.857 -18.295 -21.499  0.00  0.00    +0.000 A 
ATOM     24 CL   UNL     1     -44.095 -20.071 -18.335  0.00  0.00    +0.000 Cl
ENDBRANCH   2  18
TORSDOF 2
ENDMDL
MODEL 3
REMARK VINA RESULT:      -6.3     16.234     17.911
REMARK  Name = ZINC000072241411 ZINC72241411 PubChem-95739681
REMARK  2 active torsions:
REMARK  status: ('A' for Active; 'I' for Inactive)
REMARK    1  A    between atoms: C_5  and  C_6
REMARK    2  A    between atoms: C_7  and  C_11
REMARK                            x       y       z     vdW  Elec       q    Type
REMARK                         _______ _______ _______ _____ _____    ______ ____
ROOT
ATOM      1  C   UNL     1     -45.596  -3.803 -30.789  0.00  0.00    +0.000 C 
ATOM      2  C   UNL     1     -44.543  -4.229 -31.833  0.00  0.00    +0.000 C 
ATOM      3  C   UNL     1     -46.558  -4.505 -33.315  0.00  0.00    +0.000 C 
ATOM      4  C   UNL     1     -47.421  -4.000 -32.205  0.00  0.00    +0.000 C 
ATOM      5  C   UNL     1     -44.337  -5.395 -34.057  0.00  0.00    +0.000 C 
ATOM      6  N   UNL     1     -45.160  -4.705 -33.076  0.00  0.00    +0.000 N 
ATOM      7  O   UNL     1     -47.075  -4.808 -34.424  0.00  0.00    +0.000 OA
ATOM      8  O   UNL     1     -46.702  -3.125 -31.361  0.00  0.00    +0.000 OA
ENDROOT
BRANCH   1  13
ATOM      9  C   UNL     1     -46.091 -10.838 -28.327  0.00  0.00    +0.000 C 
ATOM     10  C   UNL     1     -46.161  -9.369 -28.543  0.00  0.00    +0.000 A 
ATOM     11  C   UNL     1     -45.615  -8.690 -29.615  0.00  0.00    +0.000 A 
ATOM     12  C   UNL     1     -45.967  -7.388 -29.317  0.00  0.00    +0.000 A 
ATOM     13  C   UNL     1     -45.990  -4.903 -29.845  0.00  0.00    +0.000 C 
ATOM     14  N   UNL     1     -46.660  -7.314 -28.166  0.00  0.00    +0.000 NA
ATOM     15  N   UNL     1     -45.633  -6.262 -30.133  0.00  0.00    +0.000 NA
ATOM     16  O   UNL     1     -46.757  -8.532 -27.728  0.00  0.00    +0.000 OA
ATOM     17  O   UNL     1     -46.661  -4.616 -28.819  0.00  0.00    +0.000 OA
ENDBRANCH   1  13
BRANCH   2  18
ATOM     18  C   UNL     1     -43.592  -3.104 -32.108  0.00  0.00    +0.000 A 
ATOM     19  C   UNL     1     -44.038  -1.775 -32.172  0.00  0.00    +0.000 A 
ATOM     20  C   UNL     1     -43.133  -0.744 -32.439  0.00  0.00    +0.000 A 
ATOM     21  C   UNL     1     -41.781  -1.035 -32.643  0.00  0.00    +0.000 A 
ATOM     22  C   UNL     1     -41.334  -2.358 -32.583  0.00  0.00    +0.000 A 
ATOM     23  C   UNL     1     -42.239  -3.391 -32.316  0.00  0.00    +0.000 A 
ATOM     24 CL   UNL     1     -40.648   0.256 -32.976  0.00  0.00    +0.000 Cl
ENDBRANCH   2  18
TORSDOF 2
ENDMDL
