MODEL 1
REMARK VINA RESULT:      -6.4      0.000      0.000
REMARK  Name = ZINC000005372519 ZINC05372519 PubChem-92261928
REMARK  9 active torsions:
REMARK  status: ('A' for Active; 'I' for Inactive)
REMARK    1  A    between atoms: N_14  and  C_20
REMARK    2  A    between atoms: C_20  and  C_21
REMARK    3  A    between atoms: C_21  and  O_22
REMARK    4  A    between atoms: C_21  and  C_24
REMARK    5  A    between atoms: C_24  and  O_25
REMARK    6  A    between atoms: C_24  and  C_27
REMARK    7  A    between atoms: C_27  and  O_28
REMARK    8  A    between atoms: C_27  and  C_30
REMARK    9  A    between atoms: C_30  and  O_31
REMARK                            x       y       z     vdW  Elec       q    Type
REMARK                         _______ _______ _______ _____ _____    ______ ____
ROOT
ATOM      1  C   UNL     1     -43.443 -19.161 -25.748  0.00  0.00    +0.000 C 
ATOM      2  C   UNL     1     -43.837 -18.888 -24.336  0.00  0.00    +0.000 A 
ATOM      3  C   UNL     1     -44.490 -17.690 -24.042  0.00  0.00    +0.000 A 
ATOM      4  C   UNL     1     -44.878 -17.395 -22.733  0.00  0.00    +0.000 A 
ATOM      5  C   UNL     1     -45.509 -16.185 -22.473  0.00  0.00    +0.000 A 
ATOM      6  C   UNL     1     -45.885 -15.865 -21.174  0.00  0.00    +0.000 A 
ATOM      7  C   UNL     1     -46.505 -14.652 -20.849  0.00  0.00    +0.000 A 
ATOM      8  O   UNL     1     -46.760 -13.799 -21.741  0.00  0.00    +0.000 OA
ATOM      9  N   UNL     1     -46.831 -14.386 -19.555  0.00  0.00    +0.000 N 
ATOM     10  C   UNL     1     -46.578 -15.256 -18.539  0.00  0.00    +0.000 A 
ATOM     11  O   UNL     1     -46.901 -14.949 -17.363  0.00  0.00    +0.000 OA
ATOM     12  C   UNL     1     -45.965 -16.485 -18.788  0.00  0.00    +0.000 A 
ATOM     13  C   UNL     1     -45.607 -16.839 -20.094  0.00  0.00    +0.000 A 
ATOM     14  N   UNL     1     -45.009 -18.040 -20.391  0.00  0.00    +0.000 N 
ATOM     15  C   UNL     1     -44.620 -18.315 -21.683  0.00  0.00    +0.000 A 
ATOM     16  C   UNL     1     -43.945 -19.509 -21.996  0.00  0.00    +0.000 A 
ATOM     17  C   UNL     1     -43.556 -19.800 -23.306  0.00  0.00    +0.000 A 
ATOM     18  C   UNL     1     -42.860 -21.091 -23.572  0.00  0.00    +0.000 C 
ATOM     19  H   UNL     1     -47.270 -13.530 -19.346  0.00  0.00    +0.000 HD
ENDROOT
BRANCH  14  20
ATOM     20  C   UNL     1     -44.765 -19.016 -19.316  0.00  0.00    +0.000 C 
BRANCH  20  21
ATOM     21  C   UNL     1     -43.286 -19.093 -18.911  0.00  0.00    +0.000 C 
BRANCH  21  22
ATOM     22  O   UNL     1     -42.934 -17.999 -18.115  0.00  0.00    +0.000 OA
ATOM     23  H   UNL     1     -42.564 -17.298 -18.675  0.00  0.00    +0.000 HD
ENDBRANCH  21  22
BRANCH  21  24
ATOM     24  C   UNL     1     -42.946 -20.407 -18.207  0.00  0.00    +0.000 C 
BRANCH  24  25
ATOM     25  O   UNL     1     -44.046 -21.269 -18.255  0.00  0.00    +0.000 OA
ATOM     26  H   UNL     1     -43.736 -22.187 -18.308  0.00  0.00    +0.000 HD
ENDBRANCH  24  25
BRANCH  24  27
ATOM     27  C   UNL     1     -41.724 -21.081 -18.835  0.00  0.00    +0.000 C 
BRANCH  27  28
ATOM     28  O   UNL     1     -42.116 -22.132 -19.666  0.00  0.00    +0.000 OA
ATOM     29  H   UNL     1     -41.462 -22.847 -19.614  0.00  0.00    +0.000 HD
ENDBRANCH  27  28
BRANCH  27  30
ATOM     30  C   UNL     1     -40.783 -21.602 -17.762  0.00  0.00    +0.000 C 
BRANCH  30  31
ATOM     31  O   UNL     1     -41.474 -21.766 -16.562  0.00  0.00    +0.000 OA
ATOM     32  H   UNL     1     -42.299 -21.256 -16.591  0.00  0.00    +0.000 HD
ENDBRANCH  30  31
ENDBRANCH  27  30
ENDBRANCH  24  27
ENDBRANCH  21  24
ENDBRANCH  20  21
ENDBRANCH  14  20
TORSDOF 9
ENDMDL
MODEL 2
REMARK VINA RESULT:      -6.2      2.623      5.175
REMARK  Name = ZINC000005372519 ZINC05372519 PubChem-92261928
REMARK  9 active torsions:
REMARK  status: ('A' for Active; 'I' for Inactive)
REMARK    1  A    between atoms: N_14  and  C_20
REMARK    2  A    between atoms: C_20  and  C_21
REMARK    3  A    between atoms: C_21  and  O_22
REMARK    4  A    between atoms: C_21  and  C_24
REMARK    5  A    between atoms: C_24  and  O_25
REMARK    6  A    between atoms: C_24  and  C_27
REMARK    7  A    between atoms: C_27  and  O_28
REMARK    8  A    between atoms: C_27  and  C_30
REMARK    9  A    between atoms: C_30  and  O_31
REMARK                            x       y       z     vdW  Elec       q    Type
REMARK                         _______ _______ _______ _____ _____    ______ ____
ROOT
ATOM      1  C   UNL     1     -46.915 -12.870 -19.624  0.00  0.00    +0.000 C 
ATOM      2  C   UNL     1     -46.494 -14.095 -20.362  0.00  0.00    +0.000 A 
ATOM      3  C   UNL     1     -46.287 -14.009 -21.740  0.00  0.00    +0.000 A 
ATOM      4  C   UNL     1     -45.889 -15.131 -22.470  0.00  0.00    +0.000 A 
ATOM      5  C   UNL     1     -45.711 -15.014 -23.843  0.00  0.00    +0.000 A 
ATOM      6  C   UNL     1     -45.334 -16.124 -24.590  0.00  0.00    +0.000 A 
ATOM      7  C   UNL     1     -45.160 -16.072 -25.978  0.00  0.00    +0.000 A 
ATOM      8  O   UNL     1     -45.328 -14.994 -26.609  0.00  0.00    +0.000 OA
ATOM      9  N   UNL     1     -44.811 -17.198 -26.657  0.00  0.00    +0.000 N 
ATOM     10  C   UNL     1     -44.622 -18.398 -26.044  0.00  0.00    +0.000 A 
ATOM     11  O   UNL     1     -44.303 -19.403 -26.730  0.00  0.00    +0.000 OA
ATOM     12  C   UNL     1     -44.775 -18.526 -24.663  0.00  0.00    +0.000 A 
ATOM     13  C   UNL     1     -45.124 -17.412 -23.890  0.00  0.00    +0.000 A 
ATOM     14  N   UNL     1     -45.278 -17.485 -22.527  0.00  0.00    +0.000 N 
ATOM     15  C   UNL     1     -45.682 -16.375 -21.818  0.00  0.00    +0.000 A 
ATOM     16  C   UNL     1     -45.913 -16.446 -20.433  0.00  0.00    +0.000 A 
ATOM     17  C   UNL     1     -46.313 -15.322 -19.706  0.00  0.00    +0.000 A 
ATOM     18  C   UNL     1     -46.523 -15.462 -18.237  0.00  0.00    +0.000 C 
ATOM     19  H   UNL     1     -44.689 -17.141 -27.633  0.00  0.00    +0.000 HD
ENDROOT
BRANCH  14  20
ATOM     20  C   UNL     1     -45.035 -18.762 -21.835  0.00  0.00    +0.000 C 
BRANCH  20  21
ATOM     21  C   UNL     1     -43.575 -18.924 -21.388  0.00  0.00    +0.000 C 
BRANCH  21  22
ATOM     22  O   UNL     1     -42.836 -17.776 -21.685  0.00  0.00    +0.000 OA
ATOM     23  H   UNL     1     -42.803 -17.653 -22.646  0.00  0.00    +0.000 HD
ENDBRANCH  21  22
BRANCH  21  24
ATOM     24  C   UNL     1     -43.459 -19.275 -19.904  0.00  0.00    +0.000 C 
BRANCH  24  25
ATOM     25  O   UNL     1     -44.619 -19.930 -19.479  0.00  0.00    +0.000 OA
ATOM     26  H   UNL     1     -45.231 -20.022 -20.226  0.00  0.00    +0.000 HD
ENDBRANCH  24  25
BRANCH  24  27
ATOM     27  C   UNL     1     -42.233 -20.147 -19.627  0.00  0.00    +0.000 C 
BRANCH  27  28
ATOM     28  O   UNL     1     -42.153 -21.190 -20.552  0.00  0.00    +0.000 OA
ATOM     29  H   UNL     1     -41.235 -21.291 -20.847  0.00  0.00    +0.000 HD
ENDBRANCH  27  28
BRANCH  27  30
ATOM     30  C   UNL     1     -42.281 -20.718 -18.219  0.00  0.00    +0.000 C 
BRANCH  30  31
ATOM     31  O   UNL     1     -43.126 -21.826 -18.184  0.00  0.00    +0.000 OA
ATOM     32  H   UNL     1     -43.505 -21.973 -19.065  0.00  0.00    +0.000 HD
ENDBRANCH  30  31
ENDBRANCH  27  30
ENDBRANCH  24  27
ENDBRANCH  21  24
ENDBRANCH  20  21
ENDBRANCH  14  20
TORSDOF 9
ENDMDL
MODEL 3
REMARK VINA RESULT:      -6.1      4.222      7.052
REMARK  Name = ZINC000005372519 ZINC05372519 PubChem-92261928
REMARK  9 active torsions:
REMARK  status: ('A' for Active; 'I' for Inactive)
REMARK    1  A    between atoms: N_14  and  C_20
REMARK    2  A    between atoms: C_20  and  C_21
REMARK    3  A    between atoms: C_21  and  O_22
REMARK    4  A    between atoms: C_21  and  C_24
REMARK    5  A    between atoms: C_24  and  O_25
REMARK    6  A    between atoms: C_24  and  C_27
REMARK    7  A    between atoms: C_27  and  O_28
REMARK    8  A    between atoms: C_27  and  C_30
REMARK    9  A    between atoms: C_30  and  O_31
REMARK                            x       y       z     vdW  Elec       q    Type
REMARK                         _______ _______ _______ _____ _____    ______ ____
ROOT
ATOM      1  C   UNL     1     -46.229 -16.556 -18.861  0.00  0.00    +0.000 C 
ATOM      2  C   UNL     1     -45.915 -16.646 -20.316  0.00  0.00    +0.000 A 
ATOM      3  C   UNL     1     -46.046 -15.500 -21.102  0.00  0.00    +0.000 A 
ATOM      4  C   UNL     1     -45.759 -15.539 -22.468  0.00  0.00    +0.000 A 
ATOM      5  C   UNL     1     -45.918 -14.384 -23.224  0.00  0.00    +0.000 A 
ATOM      6  C   UNL     1     -45.657 -14.408 -24.589  0.00  0.00    +0.000 A 
ATOM      7  C   UNL     1     -45.819 -13.282 -25.404  0.00  0.00    +0.000 A 
ATOM      8  O   UNL     1     -46.201 -12.183 -24.918  0.00  0.00    +0.000 OA
ATOM      9  N   UNL     1     -45.568 -13.372 -26.738  0.00  0.00    +0.000 N 
ATOM     10  C   UNL     1     -45.162 -14.527 -27.334  0.00  0.00    +0.000 A 
ATOM     11  O   UNL     1     -44.950 -14.547 -28.574  0.00  0.00    +0.000 OA
ATOM     12  C   UNL     1     -44.976 -15.690 -26.584  0.00  0.00    +0.000 A 
ATOM     13  C   UNL     1     -45.204 -15.677 -25.203  0.00  0.00    +0.000 A 
ATOM     14  N   UNL     1     -45.028 -16.793 -24.420  0.00  0.00    +0.000 N 
ATOM     15  C   UNL     1     -45.324 -16.746 -23.076  0.00  0.00    +0.000 A 
ATOM     16  C   UNL     1     -45.217 -17.894 -22.271  0.00  0.00    +0.000 A 
ATOM     17  C   UNL     1     -45.505 -17.853 -20.905  0.00  0.00    +0.000 A 
ATOM     18  C   UNL     1     -45.354 -19.102 -20.106  0.00  0.00    +0.000 C 
ATOM     19  H   UNL     1     -45.684 -12.569 -27.295  0.00  0.00    +0.000 HD
ENDROOT
BRANCH  14  20
ATOM     20  C   UNL     1     -44.546 -18.042 -25.033  0.00  0.00    +0.000 C 
BRANCH  20  21
ATOM     21  C   UNL     1     -43.062 -17.977 -25.420  0.00  0.00    +0.000 C 
BRANCH  21  22
ATOM     22  O   UNL     1     -42.252 -18.342 -24.340  0.00  0.00    +0.000 OA
ATOM     23  H   UNL     1     -41.961 -17.544 -23.871  0.00  0.00    +0.000 HD
ENDBRANCH  21  22
BRANCH  21  24
ATOM     24  C   UNL     1     -42.745 -18.832 -26.648  0.00  0.00    +0.000 C 
BRANCH  24  25
ATOM     25  O   UNL     1     -43.900 -19.002 -27.418  0.00  0.00    +0.000 OA
ATOM     26  H   UNL     1     -44.010 -19.941 -27.634  0.00  0.00    +0.000 HD
ENDBRANCH  24  25
BRANCH  24  27
ATOM     27  C   UNL     1     -41.636 -18.209 -27.497  0.00  0.00    +0.000 C 
BRANCH  27  28
ATOM     28  O   UNL     1     -41.239 -16.982 -26.961  0.00  0.00    +0.000 OA
ATOM     29  H   UNL     1     -41.591 -16.261 -27.505  0.00  0.00    +0.000 HD
ENDBRANCH  27  28
BRANCH  27  30
ATOM     30  C   UNL     1     -42.097 -18.012 -28.931  0.00  0.00    +0.000 C 
BRANCH  30  31
ATOM     31  O   UNL     1     -42.815 -16.822 -29.042  0.00  0.00    +0.000 OA
ATOM     32  H   UNL     1     -43.374 -16.853 -29.834  0.00  0.00    +0.000 HD
ENDBRANCH  30  31
ENDBRANCH  27  30
ENDBRANCH  24  27
ENDBRANCH  21  24
ENDBRANCH  20  21
ENDBRANCH  14  20
TORSDOF 9
ENDMDL
