MODEL 1
REMARK VINA RESULT:      -7.0      0.000      0.000
REMARK  Name = ZINC000004799960 ZINC04799960 PubChem-92235474
REMARK  8 active torsions:
REMARK  status: ('A' for Active; 'I' for Inactive)
REMARK    1  A    between atoms: C_2  and  O_28
REMARK    2  A    between atoms: C_5  and  C_8
REMARK    3  A    between atoms: C_9  and  C_19
REMARK    4  A    between atoms: C_12  and  N_33
REMARK    5  A    between atoms: C_15  and  O_30
REMARK    6  A    between atoms: C_20  and  C_21
REMARK    7  A    between atoms: C_20  and  N_34
REMARK    8  A    between atoms: C_26  and  O_32
REMARK                            x       y       z     vdW  Elec       q    Type
REMARK                         _______ _______ _______ _____ _____    ______ ____
ROOT
ATOM      1  C   UNL     1     -45.769  -8.733 -33.375  0.00  0.00    +0.000 C 
ATOM      2  C   UNL     1     -44.946  -7.452 -33.161  0.00  0.00    +0.000 C 
ATOM      3  C   UNL     1     -43.946  -7.339 -34.314  0.00  0.00    +0.000 C 
ATOM      4  C   UNL     1     -44.215  -8.545 -35.119  0.00  0.00    +0.000 C 
ATOM      5  O   UNL     1     -43.577  -8.827 -36.166  0.00  0.00    +0.000 OA
ATOM      6  N   UNL     1     -45.264  -9.350 -34.597  0.00  0.00    +0.000 N 
ENDROOT
BRANCH   1  10
ATOM      7  C   UNL     1     -45.361 -11.332 -29.962  0.00  0.00    +0.000 A 
ATOM      8  C   UNL     1     -46.580 -10.706 -30.242  0.00  0.00    +0.000 A 
ATOM      9  C   UNL     1     -46.705  -9.867 -31.353  0.00  0.00    +0.000 A 
ATOM     10  C   UNL     1     -45.611  -9.648 -32.196  0.00  0.00    +0.000 A 
ATOM     11  C   UNL     1     -44.382 -10.264 -31.912  0.00  0.00    +0.000 A 
ATOM     12  C   UNL     1     -44.260 -11.104 -30.803  0.00  0.00    +0.000 A 
BRANCH   7  14
ATOM     13  C   UNL     1     -45.866 -13.457 -28.802  0.00  0.00    +0.000 C 
ATOM     14  O   UNL     1     -45.271 -12.167 -28.845  0.00  0.00    +0.000 OA
ENDBRANCH   7  14
ENDBRANCH   1  10
BRANCH   6  15
ATOM     15  C   UNL     1     -45.828 -10.527 -35.211  0.00  0.00    +0.000 A 
ATOM     16  C   UNL     1     -47.009 -10.453 -35.967  0.00  0.00    +0.000 A 
ATOM     17  C   UNL     1     -47.537 -11.594 -36.576  0.00  0.00    +0.000 A 
ATOM     18  C   UNL     1     -46.892 -12.827 -36.444  0.00  0.00    +0.000 A 
ATOM     19  C   UNL     1     -45.712 -12.909 -35.689  0.00  0.00    +0.000 A 
ATOM     20  C   UNL     1     -45.186 -11.766 -35.080  0.00  0.00    +0.000 A 
BRANCH  18  22
ATOM     21  C   UNL     1     -46.660 -15.077 -37.445  0.00  0.00    +0.000 C 
ATOM     22  O   UNL     1     -47.440 -13.948 -37.072  0.00  0.00    +0.000 OA
ENDBRANCH  18  22
ENDBRANCH   6  15
BRANCH   2  23
ATOM     23  C   UNL     1     -45.838  -6.256 -33.114  0.00  0.00    +0.000 C 
ATOM     24  O   UNL     1     -46.953  -6.343 -32.533  0.00  0.00    +0.000 OA
ATOM     25  N   UNL     1     -45.430  -5.027 -33.719  0.00  0.00    +0.000 NA
BRANCH  25  26
ATOM     26  C   UNL     1     -46.283  -3.851 -33.724  0.00  0.00    +0.000 C 
BRANCH  26  27
ATOM     27  C   UNL     1     -45.564  -2.705 -33.094  0.00  0.00    +0.000 A 
ATOM     28  C   UNL     1     -44.626  -1.990 -33.847  0.00  0.00    +0.000 A 
ATOM     29  C   UNL     1     -43.925  -0.926 -33.274  0.00  0.00    +0.000 A 
ATOM     30  C   UNL     1     -44.157  -0.574 -31.943  0.00  0.00    +0.000 A 
ATOM     31  C   UNL     1     -45.086  -1.289 -31.183  0.00  0.00    +0.000 A 
ATOM     32  C   UNL     1     -45.794  -2.365 -31.750  0.00  0.00    +0.000 A 
BRANCH  32  34
ATOM     33  C   UNL     1     -46.340  -4.036 -30.005  0.00  0.00    +0.000 C 
ATOM     34  O   UNL     1     -46.722  -3.097 -31.002  0.00  0.00    +0.000 OA
ENDBRANCH  32  34
ENDBRANCH  26  27
ENDBRANCH  25  26
ENDBRANCH   2  23
TORSDOF 8
ENDMDL
MODEL 2
REMARK VINA RESULT:      -6.8      3.484      6.717
REMARK  Name = ZINC000004799960 ZINC04799960 PubChem-92235474
REMARK  8 active torsions:
REMARK  status: ('A' for Active; 'I' for Inactive)
REMARK    1  A    between atoms: C_2  and  O_28
REMARK    2  A    between atoms: C_5  and  C_8
REMARK    3  A    between atoms: C_9  and  C_19
REMARK    4  A    between atoms: C_12  and  N_33
REMARK    5  A    between atoms: C_15  and  O_30
REMARK    6  A    between atoms: C_20  and  C_21
REMARK    7  A    between atoms: C_20  and  N_34
REMARK    8  A    between atoms: C_26  and  O_32
REMARK                            x       y       z     vdW  Elec       q    Type
REMARK                         _______ _______ _______ _____ _____    ______ ____
ROOT
ATOM      1  C   UNL     1     -45.770  -6.517 -30.530  0.00  0.00    +0.000 C 
ATOM      2  C   UNL     1     -47.024  -5.848 -31.115  0.00  0.00    +0.000 C 
ATOM      3  C   UNL     1     -47.629  -4.955 -30.028  0.00  0.00    +0.000 C 
ATOM      4  C   UNL     1     -46.727  -5.159 -28.879  0.00  0.00    +0.000 C 
ATOM      5  O   UNL     1     -46.897  -4.596 -27.766  0.00  0.00    +0.000 OA
ATOM      6  N   UNL     1     -45.651  -6.045 -29.155  0.00  0.00    +0.000 N 
ENDROOT
BRANCH   1  10
ATOM      7  C   UNL     1     -46.137 -10.806 -30.730  0.00  0.00    +0.000 A 
ATOM      8  C   UNL     1     -44.976 -10.167 -31.177  0.00  0.00    +0.000 A 
ATOM      9  C   UNL     1     -44.863  -8.776 -31.105  0.00  0.00    +0.000 A 
ATOM     10  C   UNL     1     -45.912  -8.011 -30.584  0.00  0.00    +0.000 A 
ATOM     11  C   UNL     1     -47.084  -8.646 -30.147  0.00  0.00    +0.000 A 
ATOM     12  C   UNL     1     -47.194 -10.037 -30.217  0.00  0.00    +0.000 A 
BRANCH   7  14
ATOM     13  C   UNL     1     -46.142 -13.041 -29.670  0.00  0.00    +0.000 C 
ATOM     14  O   UNL     1     -46.217 -12.199 -30.813  0.00  0.00    +0.000 OA
ENDBRANCH   7  14
ENDBRANCH   1  10
BRANCH   6  15
ATOM     15  C   UNL     1     -44.551  -6.358 -28.276  0.00  0.00    +0.000 A 
ATOM     16  C   UNL     1     -43.223  -6.125 -28.667  0.00  0.00    +0.000 A 
ATOM     17  C   UNL     1     -42.165  -6.411 -27.802  0.00  0.00    +0.000 A 
ATOM     18  C   UNL     1     -42.416  -6.931 -26.528  0.00  0.00    +0.000 A 
ATOM     19  C   UNL     1     -43.741  -7.169 -26.131  0.00  0.00    +0.000 A 
ATOM     20  C   UNL     1     -44.797  -6.882 -26.999  0.00  0.00    +0.000 A 
BRANCH  18  22
ATOM     21  C   UNL     1     -41.021  -6.388 -24.559  0.00  0.00    +0.000 C 
ATOM     22  O   UNL     1     -41.337  -7.200 -25.682  0.00  0.00    +0.000 OA
ENDBRANCH  18  22
ENDBRANCH   6  15
BRANCH   2  23
ATOM     23  C   UNL     1     -46.677  -5.047 -32.326  0.00  0.00    +0.000 C 
ATOM     24  O   UNL     1     -46.687  -5.604 -33.456  0.00  0.00    +0.000 OA
ATOM     25  N   UNL     1     -46.337  -3.664 -32.203  0.00  0.00    +0.000 NA
BRANCH  25  26
ATOM     26  C   UNL     1     -45.961  -2.859 -33.353  0.00  0.00    +0.000 C 
BRANCH  26  27
ATOM     27  C   UNL     1     -44.590  -2.304 -33.152  0.00  0.00    +0.000 A 
ATOM     28  C   UNL     1     -44.445  -1.007 -32.647  0.00  0.00    +0.000 A 
ATOM     29  C   UNL     1     -43.173  -0.458 -32.469  0.00  0.00    +0.000 A 
ATOM     30  C   UNL     1     -42.039  -1.203 -32.799  0.00  0.00    +0.000 A 
ATOM     31  C   UNL     1     -42.177  -2.495 -33.312  0.00  0.00    +0.000 A 
ATOM     32  C   UNL     1     -43.454  -3.055 -33.498  0.00  0.00    +0.000 A 
BRANCH  32  34
ATOM     33  C   UNL     1     -43.119  -5.506 -33.362  0.00  0.00    +0.000 C 
ATOM     34  O   UNL     1     -43.611  -4.345 -34.019  0.00  0.00    +0.000 OA
ENDBRANCH  32  34
ENDBRANCH  26  27
ENDBRANCH  25  26
ENDBRANCH   2  23
TORSDOF 8
ENDMDL
MODEL 3
REMARK VINA RESULT:      -6.3      9.085     14.175
REMARK  Name = ZINC000004799960 ZINC04799960 PubChem-92235474
REMARK  8 active torsions:
REMARK  status: ('A' for Active; 'I' for Inactive)
REMARK    1  A    between atoms: C_2  and  O_28
REMARK    2  A    between atoms: C_5  and  C_8
REMARK    3  A    between atoms: C_9  and  C_19
REMARK    4  A    between atoms: C_12  and  N_33
REMARK    5  A    between atoms: C_15  and  O_30
REMARK    6  A    between atoms: C_20  and  C_21
REMARK    7  A    between atoms: C_20  and  N_34
REMARK    8  A    between atoms: C_26  and  O_32
REMARK                            x       y       z     vdW  Elec       q    Type
REMARK                         _______ _______ _______ _____ _____    ______ ____
ROOT
ATOM      1  C   UNL     1     -43.689 -17.627 -24.969  0.00  0.00    +0.000 C 
ATOM      2  C   UNL     1     -44.913 -17.434 -24.057  0.00  0.00    +0.000 C 
ATOM      3  C   UNL     1     -45.808 -18.666 -24.207  0.00  0.00    +0.000 C 
ATOM      4  C   UNL     1     -45.088 -19.493 -25.194  0.00  0.00    +0.000 C 
ATOM      5  O   UNL     1     -45.517 -20.605 -25.600  0.00  0.00    +0.000 OA
ATOM      6  N   UNL     1     -43.867 -18.914 -25.633  0.00  0.00    +0.000 N 
ENDROOT
BRANCH   1  10
ATOM      7  C   UNL     1     -43.406 -14.389 -27.798  0.00  0.00    +0.000 A 
ATOM      8  C   UNL     1     -42.269 -14.855 -27.129  0.00  0.00    +0.000 A 
ATOM      9  C   UNL     1     -42.369 -15.909 -26.216  0.00  0.00    +0.000 A 
ATOM     10  C   UNL     1     -43.608 -16.506 -25.964  0.00  0.00    +0.000 A 
ATOM     11  C   UNL     1     -44.753 -16.033 -26.622  0.00  0.00    +0.000 A 
ATOM     12  C   UNL     1     -44.651 -14.982 -27.537  0.00  0.00    +0.000 A 
BRANCH   7  14
ATOM     13  C   UNL     1     -42.209 -12.393 -28.637  0.00  0.00    +0.000 C 
ATOM     14  O   UNL     1     -43.271 -13.336 -28.707  0.00  0.00    +0.000 OA
ENDBRANCH   7  14
ENDBRANCH   1  10
BRANCH   6  15
ATOM     15  C   UNL     1     -42.894 -19.524 -26.505  0.00  0.00    +0.000 A 
ATOM     16  C   UNL     1     -41.659 -19.971 -26.011  0.00  0.00    +0.000 A 
ATOM     17  C   UNL     1     -40.730 -20.579 -26.859  0.00  0.00    +0.000 A 
ATOM     18  C   UNL     1     -41.023 -20.756 -28.215  0.00  0.00    +0.000 A 
ATOM     19  C   UNL     1     -42.255 -20.310 -28.717  0.00  0.00    +0.000 A 
ATOM     20  C   UNL     1     -43.182 -19.701 -27.867  0.00  0.00    +0.000 A 
BRANCH  18  22
ATOM     21  C   UNL     1     -39.927 -21.053 -30.413  0.00  0.00    +0.000 C 
ATOM     22  O   UNL     1     -40.077 -21.376 -29.036  0.00  0.00    +0.000 OA
ENDBRANCH  18  22
ENDBRANCH   6  15
BRANCH   2  23
ATOM     23  C   UNL     1     -44.487 -17.257 -22.637  0.00  0.00    +0.000 C 
ATOM     24  O   UNL     1     -43.964 -18.226 -22.026  0.00  0.00    +0.000 OA
ATOM     25  N   UNL     1     -44.671 -16.001 -21.981  0.00  0.00    +0.000 NA
BRANCH  25  26
ATOM     26  C   UNL     1     -44.301 -15.798 -20.590  0.00  0.00    +0.000 C 
BRANCH  26  27
ATOM     27  C   UNL     1     -45.513 -15.450 -19.792  0.00  0.00    +0.000 A 
ATOM     28  C   UNL     1     -45.895 -14.108 -19.678  0.00  0.00    +0.000 A 
ATOM     29  C   UNL     1     -47.014 -13.756 -18.920  0.00  0.00    +0.000 A 
ATOM     30  C   UNL     1     -47.756 -14.743 -18.270  0.00  0.00    +0.000 A 
ATOM     31  C   UNL     1     -47.376 -16.084 -18.373  0.00  0.00    +0.000 A 
ATOM     32  C   UNL     1     -46.248 -16.448 -19.130  0.00  0.00    +0.000 A 
BRANCH  32  34
ATOM     33  C   UNL     1     -46.673 -18.793 -19.807  0.00  0.00    +0.000 C 
ATOM     34  O   UNL     1     -45.848 -17.785 -19.238  0.00  0.00    +0.000 OA
ENDBRANCH  32  34
ENDBRANCH  26  27
ENDBRANCH  25  26
ENDBRANCH   2  23
TORSDOF 8
ENDMDL
