MODEL 1
REMARK VINA RESULT:      -6.1      0.000      0.000
REMARK  Name = ZINC000004733041 ZINC04733041 PubChem-92230333
REMARK  6 active torsions:
REMARK  status: ('A' for Active; 'I' for Inactive)
REMARK    1  A    between atoms: C_2  and  O_26
REMARK    2  A    between atoms: C_5  and  N_29
REMARK    3  A    between atoms: C_8  and  C_20
REMARK    4  A    between atoms: C_9  and  C_13
REMARK    5  A    between atoms: C_14  and  C_15
REMARK    6  A    between atoms: C_14  and  N_30
REMARK                            x       y       z     vdW  Elec       q    Type
REMARK                         _______ _______ _______ _____ _____    ______ ____
ROOT
ATOM      1  C   UNL     1     -45.020  -4.333 -32.039  0.00  0.00    +0.000 C 
ATOM      2  C   UNL     1     -46.339  -3.830 -31.410  0.00  0.00    +0.000 C 
ATOM      3  C   UNL     1     -47.611  -4.260 -32.145  0.00  0.00    +0.000 C 
ATOM      4  C   UNL     1     -47.419  -4.126 -33.643  0.00  0.00    +0.000 C 
ATOM      5  C   UNL     1     -46.353  -5.084 -34.040  0.00  0.00    +0.000 C 
ATOM      6  O   UNL     1     -46.530  -5.814 -35.053  0.00  0.00    +0.000 OA
ATOM      7  N   UNL     1     -45.186  -5.226 -33.201  0.00  0.00    +0.000 N 
ENDROOT
BRANCH   1   8
ATOM      8  C   UNL     1     -44.104  -3.193 -32.361  0.00  0.00    +0.000 A 
ATOM      9  C   UNL     1     -42.721  -3.294 -32.152  0.00  0.00    +0.000 A 
ATOM     10  C   UNL     1     -41.885  -2.217 -32.461  0.00  0.00    +0.000 A 
ATOM     11  C   UNL     1     -42.428  -1.037 -32.980  0.00  0.00    +0.000 A 
ATOM     12  C   UNL     1     -43.807  -0.934 -33.187  0.00  0.00    +0.000 A 
ATOM     13  C   UNL     1     -44.644  -2.011 -32.878  0.00  0.00    +0.000 A 
ATOM     14  F   UNL     1     -41.617   0.005 -33.284  0.00  0.00    +0.000 F 
ENDBRANCH   1   8
BRANCH   7  18
ATOM     15  C   UNL     1     -42.163  -8.154 -33.885  0.00  0.00    +0.000 A 
ATOM     16  C   UNL     1     -43.018  -8.260 -32.778  0.00  0.00    +0.000 A 
ATOM     17  C   UNL     1     -44.010  -7.300 -32.563  0.00  0.00    +0.000 A 
ATOM     18  C   UNL     1     -44.169  -6.222 -33.449  0.00  0.00    +0.000 A 
ATOM     19  C   UNL     1     -43.303  -6.121 -34.550  0.00  0.00    +0.000 A 
ATOM     20  C   UNL     1     -42.312  -7.081 -34.768  0.00  0.00    +0.000 A 
BRANCH  15  22
ATOM     21  C   UNL     1     -40.071  -9.303 -33.231  0.00  0.00    +0.000 C 
ATOM     22  O   UNL     1     -41.156  -9.095 -34.126  0.00  0.00    +0.000 OA
ENDBRANCH  15  22
ENDBRANCH   7  18
BRANCH   2  23
ATOM     23  C   UNL     1     -46.407  -4.236 -29.977  0.00  0.00    +0.000 C 
ATOM     24  O   UNL     1     -46.866  -3.429 -29.125  0.00  0.00    +0.000 OA
ATOM     25  N   UNL     1     -45.928  -5.521 -29.577  0.00  0.00    +0.000 NA
BRANCH  25  26
ATOM     26  C   UNL     1     -45.918  -5.946 -28.188  0.00  0.00    +0.000 C 
BRANCH  26  27
ATOM     27  C   UNL     1     -44.549  -6.393 -27.815  0.00  0.00    +0.000 A 
ATOM     28  C   UNL     1     -43.476  -6.177 -28.684  0.00  0.00    +0.000 A 
ATOM     29  C   UNL     1     -42.192  -6.579 -28.312  0.00  0.00    +0.000 A 
ATOM     30  C   UNL     1     -41.999  -7.187 -27.069  0.00  0.00    +0.000 A 
ATOM     31  C   UNL     1     -44.315  -6.998 -26.576  0.00  0.00    +0.000 A 
ATOM     32  N   UNL     1     -43.055  -7.382 -26.233  0.00  0.00    +0.000 NA
ENDBRANCH  26  27
ENDBRANCH  25  26
ENDBRANCH   2  23
TORSDOF 6
ENDMDL
MODEL 2
REMARK VINA RESULT:      -6.0      4.413      7.447
REMARK  Name = ZINC000004733041 ZINC04733041 PubChem-92230333
REMARK  6 active torsions:
REMARK  status: ('A' for Active; 'I' for Inactive)
REMARK    1  A    between atoms: C_2  and  O_26
REMARK    2  A    between atoms: C_5  and  N_29
REMARK    3  A    between atoms: C_8  and  C_20
REMARK    4  A    between atoms: C_9  and  C_13
REMARK    5  A    between atoms: C_14  and  C_15
REMARK    6  A    between atoms: C_14  and  N_30
REMARK                            x       y       z     vdW  Elec       q    Type
REMARK                         _______ _______ _______ _____ _____    ______ ____
ROOT
ATOM      1  C   UNL     1     -45.568  -7.624 -27.695  0.00  0.00    +0.000 C 
ATOM      2  C   UNL     1     -45.134  -7.878 -26.233  0.00  0.00    +0.000 C 
ATOM      3  C   UNL     1     -43.801  -7.239 -25.835  0.00  0.00    +0.000 C 
ATOM      4  C   UNL     1     -42.781  -7.426 -26.941  0.00  0.00    +0.000 C 
ATOM      5  C   UNL     1     -43.274  -6.676 -28.128  0.00  0.00    +0.000 C 
ATOM      6  O   UNL     1     -42.473  -5.940 -28.766  0.00  0.00    +0.000 OA
ATOM      7  N   UNL     1     -44.678  -6.732 -28.462  0.00  0.00    +0.000 N 
ENDROOT
BRANCH   1   8
ATOM      8  C   UNL     1     -45.797  -8.912 -28.423  0.00  0.00    +0.000 A 
ATOM      9  C   UNL     1     -46.833  -9.040 -29.360  0.00  0.00    +0.000 A 
ATOM     10  C   UNL     1     -47.028 -10.252 -30.028  0.00  0.00    +0.000 A 
ATOM     11  C   UNL     1     -46.189 -11.340 -29.763  0.00  0.00    +0.000 A 
ATOM     12  C   UNL     1     -45.158 -11.215 -28.828  0.00  0.00    +0.000 A 
ATOM     13  C   UNL     1     -44.962 -10.002 -28.158  0.00  0.00    +0.000 A 
ATOM     14  F   UNL     1     -46.376 -12.513 -30.414  0.00  0.00    +0.000 F 
ENDBRANCH   1   8
BRANCH   7  18
ATOM     15  C   UNL     1     -46.432  -4.396 -31.568  0.00  0.00    +0.000 A 
ATOM     16  C   UNL     1     -46.777  -4.170 -30.227  0.00  0.00    +0.000 A 
ATOM     17  C   UNL     1     -46.193  -4.935 -29.214  0.00  0.00    +0.000 A 
ATOM     18  C   UNL     1     -45.257  -5.935 -29.519  0.00  0.00    +0.000 A 
ATOM     19  C   UNL     1     -44.924  -6.158 -30.865  0.00  0.00    +0.000 A 
ATOM     20  C   UNL     1     -45.504  -5.393 -31.880  0.00  0.00    +0.000 A 
BRANCH  15  22
ATOM     21  C   UNL     1     -46.226  -2.846 -33.486  0.00  0.00    +0.000 C 
ATOM     22  O   UNL     1     -47.001  -3.651 -32.607  0.00  0.00    +0.000 OA
ENDBRANCH  15  22
ENDBRANCH   7  18
BRANCH   2  23
ATOM     23  C   UNL     1     -46.213  -7.447 -25.300  0.00  0.00    +0.000 C 
ATOM     24  O   UNL     1     -47.364  -7.950 -25.408  0.00  0.00    +0.000 OA
ATOM     25  N   UNL     1     -45.946  -6.451 -24.311  0.00  0.00    +0.000 NA
BRANCH  25  26
ATOM     26  C   UNL     1     -46.976  -5.954 -23.415  0.00  0.00    +0.000 C 
BRANCH  26  27
ATOM     27  C   UNL     1     -47.079  -4.475 -23.548  0.00  0.00    +0.000 A 
ATOM     28  C   UNL     1     -47.231  -3.890 -24.808  0.00  0.00    +0.000 A 
ATOM     29  C   UNL     1     -47.352  -2.504 -24.917  0.00  0.00    +0.000 A 
ATOM     30  C   UNL     1     -47.325  -1.722 -23.760  0.00  0.00    +0.000 A 
ATOM     31  C   UNL     1     -47.065  -3.660 -22.412  0.00  0.00    +0.000 A 
ATOM     32  N   UNL     1     -47.184  -2.311 -22.541  0.00  0.00    +0.000 NA
ENDBRANCH  26  27
ENDBRANCH  25  26
ENDBRANCH   2  23
TORSDOF 6
ENDMDL
MODEL 3
REMARK VINA RESULT:      -5.9     10.301     13.927
REMARK  Name = ZINC000004733041 ZINC04733041 PubChem-92230333
REMARK  6 active torsions:
REMARK  status: ('A' for Active; 'I' for Inactive)
REMARK    1  A    between atoms: C_2  and  O_26
REMARK    2  A    between atoms: C_5  and  N_29
REMARK    3  A    between atoms: C_8  and  C_20
REMARK    4  A    between atoms: C_9  and  C_13
REMARK    5  A    between atoms: C_14  and  C_15
REMARK    6  A    between atoms: C_14  and  N_30
REMARK                            x       y       z     vdW  Elec       q    Type
REMARK                         _______ _______ _______ _____ _____    ______ ____
ROOT
ATOM      1  C   UNL     1     -44.971 -15.631 -23.400  0.00  0.00    +0.000 C 
ATOM      2  C   UNL     1     -44.536 -15.564 -21.917  0.00  0.00    +0.000 C 
ATOM      3  C   UNL     1     -43.340 -14.651 -21.636  0.00  0.00    +0.000 C 
ATOM      4  C   UNL     1     -42.277 -14.841 -22.699  0.00  0.00    +0.000 C 
ATOM      5  C   UNL     1     -42.859 -14.391 -23.992  0.00  0.00    +0.000 C 
ATOM      6  O   UNL     1     -42.178 -13.645 -24.746  0.00  0.00    +0.000 OA
ATOM      7  N   UNL     1     -44.225 -14.739 -24.307  0.00  0.00    +0.000 N 
ENDROOT
BRANCH   1   8
ATOM      8  C   UNL     1     -44.962 -17.041 -23.903  0.00  0.00    +0.000 A 
ATOM      9  C   UNL     1     -43.832 -17.858 -23.748  0.00  0.00    +0.000 A 
ATOM     10  C   UNL     1     -43.846 -19.171 -24.225  0.00  0.00    +0.000 A 
ATOM     11  C   UNL     1     -44.988 -19.673 -24.859  0.00  0.00    +0.000 A 
ATOM     12  C   UNL     1     -46.114 -18.860 -25.016  0.00  0.00    +0.000 A 
ATOM     13  C   UNL     1     -46.101 -17.545 -24.539  0.00  0.00    +0.000 A 
ATOM     14  F   UNL     1     -45.003 -20.948 -25.318  0.00  0.00    +0.000 F 
ENDBRANCH   1   8
BRANCH   7  18
ATOM     15  C   UNL     1     -46.271 -13.265 -27.746  0.00  0.00    +0.000 A 
ATOM     16  C   UNL     1     -46.456 -12.659 -26.494  0.00  0.00    +0.000 A 
ATOM     17  C   UNL     1     -45.778 -13.143 -25.373  0.00  0.00    +0.000 A 
ATOM     18  C   UNL     1     -44.903 -14.237 -25.480  0.00  0.00    +0.000 A 
ATOM     19  C   UNL     1     -44.730 -14.840 -26.736  0.00  0.00    +0.000 A 
ATOM     20  C   UNL     1     -45.405 -14.356 -27.860  0.00  0.00    +0.000 A 
BRANCH  15  22
ATOM     21  C   UNL     1     -46.311 -12.727 -30.161  0.00  0.00    +0.000 C 
ATOM     22  O   UNL     1     -46.938 -12.808 -28.888  0.00  0.00    +0.000 OA
ENDBRANCH  15  22
ENDBRANCH   7  18
BRANCH   2  23
ATOM     23  C   UNL     1     -45.696 -15.175 -21.065  0.00  0.00    +0.000 C 
ATOM     24  O   UNL     1     -46.190 -16.018 -20.269  0.00  0.00    +0.000 OA
ATOM     25  N   UNL     1     -46.255 -13.865 -21.176  0.00  0.00    +0.000 NA
BRANCH  25  26
ATOM     26  C   UNL     1     -47.419 -13.453 -20.411  0.00  0.00    +0.000 C 
BRANCH  26  27
ATOM     27  C   UNL     1     -46.999 -12.519 -19.331  0.00  0.00    +0.000 A 
ATOM     28  C   UNL     1     -47.049 -11.137 -19.536  0.00  0.00    +0.000 A 
ATOM     29  C   UNL     1     -46.677 -10.271 -18.507  0.00  0.00    +0.000 A 
ATOM     30  C   UNL     1     -46.263 -10.802 -17.282  0.00  0.00    +0.000 A 
ATOM     31  C   UNL     1     -46.587 -13.012 -18.089  0.00  0.00    +0.000 A 
ATOM     32  N   UNL     1     -46.228 -12.150 -17.100  0.00  0.00    +0.000 NA
ENDBRANCH  26  27
ENDBRANCH  25  26
ENDBRANCH   2  23
TORSDOF 6
ENDMDL
