MODEL 1
REMARK VINA RESULT:      -7.1      0.000      0.000
REMARK  Name = ZINC000018200369
REMARK  2 active torsions:
REMARK  status: ('A' for Active; 'I' for Inactive)
REMARK    1  A    between atoms: C_1  and  C_31
REMARK    2  A    between atoms: C_3  and  O_4
REMARK                            x       y       z     vdW  Elec       q    Type
REMARK                         _______ _______ _______ _____ _____    ______ ____
ROOT
ATOM      1  C   UNL     1     -46.137  -5.728 -32.123  0.00  0.00    +0.000 C 
ATOM      2  C   UNL     1     -46.366  -5.775 -30.644  0.00  0.00    +0.000 A 
ATOM      3  C   UNL     1     -47.051  -4.962 -29.776  0.00  0.00    +0.000 A 
ATOM      4  N   UNL     1     -46.938  -5.443 -28.518  0.00  0.00    +0.000 NA
ATOM      5  N   UNL     1     -46.196  -6.545 -28.560  0.00  0.00    +0.000 N 
ATOM      6  C   UNL     1     -45.855  -6.740 -29.846  0.00  0.00    +0.000 A 
ATOM      7  N   UNL     1     -45.078  -7.813 -30.359  0.00  0.00    +0.000 N 
ATOM      8  C   UNL     1     -44.872  -7.903 -31.782  0.00  0.00    +0.000 C 
ATOM      9  C   UNL     1     -45.363  -6.951 -32.632  0.00  0.00    +0.000 C 
ATOM     10  C   UNL     1     -45.206  -7.134 -34.096  0.00  0.00    +0.000 C 
ATOM     11  O   UNL     1     -45.721  -6.313 -34.901  0.00  0.00    +0.000 OA
ATOM     12  C   UNL     1     -44.413  -8.282 -34.648  0.00  0.00    +0.000 C 
ATOM     13  C   UNL     1     -44.425  -9.487 -33.710  0.00  0.00    +0.000 C 
ATOM     14  C   UNL     1     -43.401 -10.488 -34.198  0.00  0.00    +0.000 C 
ATOM     15  C   UNL     1     -45.791 -10.155 -33.719  0.00  0.00    +0.000 C 
ATOM     16  C   UNL     1     -44.049  -9.057 -32.290  0.00  0.00    +0.000 C 
ATOM     17  H   UNL     1     -45.946  -7.112 -27.795  0.00  0.00    +0.000 HD
ATOM     18  H   UNL     1     -44.688  -8.485 -29.754  0.00  0.00    +0.000 HD
ENDROOT
BRANCH   1  29
ATOM     19  C   UNL     1     -47.609  -3.600 -33.717  0.00  0.00    +0.000 C 
ATOM     20  C   UNL     1     -46.191  -3.432 -33.284  0.00  0.00    +0.000 A 
ATOM     21  N   UNL     1     -45.542  -2.287 -33.622  0.00  0.00    +0.000 NA
ATOM     22  C   UNL     1     -44.251  -2.074 -33.264  0.00  0.00    +0.000 A 
ATOM     23  C   UNL     1     -43.599  -0.890 -33.620  0.00  0.00    +0.000 A 
ATOM     24  C   UNL     1     -42.267  -0.689 -33.243  0.00  0.00    +0.000 A 
ATOM     25  C   UNL     1     -41.587  -1.669 -32.512  0.00  0.00    +0.000 A 
ATOM     26  C   UNL     1     -42.236  -2.856 -32.153  0.00  0.00    +0.000 A 
ATOM     27  C   UNL     1     -43.567  -3.059 -32.528  0.00  0.00    +0.000 A 
ATOM     28  N   UNL     1     -44.212  -4.205 -32.189  0.00  0.00    +0.000 NA
ATOM     29  C   UNL     1     -45.508  -4.424 -32.541  0.00  0.00    +0.000 A 
ENDBRANCH   1  29
BRANCH   3  30
ATOM     30  O   UNL     1     -47.756  -3.816 -30.114  0.00  0.00    +0.000 OA
ATOM     31  H   UNL     1     -48.692  -3.832 -30.139  0.00  0.00    +0.000 HD
ENDBRANCH   3  30
TORSDOF 2
ENDMDL
MODEL 2
REMARK VINA RESULT:      -6.7      2.379      4.738
REMARK  Name = ZINC000018200369
REMARK  2 active torsions:
REMARK  status: ('A' for Active; 'I' for Inactive)
REMARK    1  A    between atoms: C_1  and  C_31
REMARK    2  A    between atoms: C_3  and  O_4
REMARK                            x       y       z     vdW  Elec       q    Type
REMARK                         _______ _______ _______ _____ _____    ______ ____
ROOT
ATOM      1  C   UNL     1     -44.001  -6.486 -31.434  0.00  0.00    +0.000 C 
ATOM      2  C   UNL     1     -44.920  -6.974 -32.510  0.00  0.00    +0.000 A 
ATOM      3  C   UNL     1     -44.763  -7.164 -33.860  0.00  0.00    +0.000 A 
ATOM      4  N   UNL     1     -45.920  -7.614 -34.393  0.00  0.00    +0.000 NA
ATOM      5  N   UNL     1     -46.815  -7.717 -33.415  0.00  0.00    +0.000 N 
ATOM      6  C   UNL     1     -46.205  -7.330 -32.282  0.00  0.00    +0.000 A 
ATOM      7  N   UNL     1     -46.778  -7.297 -30.983  0.00  0.00    +0.000 N 
ATOM      8  C   UNL     1     -45.950  -6.922 -29.867  0.00  0.00    +0.000 C 
ATOM      9  C   UNL     1     -44.647  -6.548 -30.043  0.00  0.00    +0.000 C 
ATOM     10  C   UNL     1     -43.805  -6.260 -28.855  0.00  0.00    +0.000 C 
ATOM     11  O   UNL     1     -42.581  -5.995 -28.989  0.00  0.00    +0.000 OA
ATOM     12  C   UNL     1     -44.397  -6.253 -27.477  0.00  0.00    +0.000 C 
ATOM     13  C   UNL     1     -45.603  -7.184 -27.369  0.00  0.00    +0.000 C 
ATOM     14  C   UNL     1     -46.297  -6.924 -26.050  0.00  0.00    +0.000 C 
ATOM     15  C   UNL     1     -45.158  -8.638 -27.397  0.00  0.00    +0.000 C 
ATOM     16  C   UNL     1     -46.590  -6.905 -28.504  0.00  0.00    +0.000 C 
ATOM     17  H   UNL     1     -47.748  -8.021 -33.504  0.00  0.00    +0.000 HD
ATOM     18  H   UNL     1     -47.727  -7.528 -30.846  0.00  0.00    +0.000 HD
ENDROOT
BRANCH   1  29
ATOM     19  C   UNL     1     -41.112  -6.008 -32.247  0.00  0.00    +0.000 C 
ATOM     20  C   UNL     1     -42.102  -4.897 -32.137  0.00  0.00    +0.000 A 
ATOM     21  N   UNL     1     -41.688  -3.631 -32.408  0.00  0.00    +0.000 NA
ATOM     22  C   UNL     1     -42.537  -2.576 -32.321  0.00  0.00    +0.000 A 
ATOM     23  C   UNL     1     -42.095  -1.281 -32.604  0.00  0.00    +0.000 A 
ATOM     24  C   UNL     1     -42.984  -0.206 -32.508  0.00  0.00    +0.000 A 
ATOM     25  C   UNL     1     -44.314  -0.424 -32.131  0.00  0.00    +0.000 A 
ATOM     26  C   UNL     1     -44.761  -1.720 -31.848  0.00  0.00    +0.000 A 
ATOM     27  C   UNL     1     -43.875  -2.796 -31.943  0.00  0.00    +0.000 A 
ATOM     28  N   UNL     1     -44.292  -4.059 -31.671  0.00  0.00    +0.000 NA
ATOM     29  C   UNL     1     -43.447  -5.122 -31.759  0.00  0.00    +0.000 A 
ENDBRANCH   1  29
BRANCH   3  30
ATOM     30  O   UNL     1     -43.605  -6.933 -34.590  0.00  0.00    +0.000 OA
ATOM     31  H   UNL     1     -42.876  -6.505 -34.189  0.00  0.00    +0.000 HD
ENDBRANCH   3  30
TORSDOF 2
ENDMDL
MODEL 3
REMARK VINA RESULT:      -6.6     10.278     13.225
REMARK  Name = ZINC000018200369
REMARK  2 active torsions:
REMARK  status: ('A' for Active; 'I' for Inactive)
REMARK    1  A    between atoms: C_1  and  C_31
REMARK    2  A    between atoms: C_3  and  O_4
REMARK                            x       y       z     vdW  Elec       q    Type
REMARK                         _______ _______ _______ _____ _____    ______ ____
ROOT
ATOM      1  C   UNL     1     -43.591 -16.531 -25.413  0.00  0.00    +0.000 C 
ATOM      2  C   UNL     1     -44.520 -17.677 -25.157  0.00  0.00    +0.000 A 
ATOM      3  C   UNL     1     -44.929 -18.739 -25.923  0.00  0.00    +0.000 A 
ATOM      4  N   UNL     1     -45.803 -19.496 -25.222  0.00  0.00    +0.000 NA
ATOM      5  N   UNL     1     -45.962 -18.942 -24.023  0.00  0.00    +0.000 N 
ATOM      6  C   UNL     1     -45.185 -17.845 -23.991  0.00  0.00    +0.000 A 
ATOM      7  N   UNL     1     -45.028 -16.954 -22.896  0.00  0.00    +0.000 N 
ATOM      8  C   UNL     1     -44.092 -15.866 -23.015  0.00  0.00    +0.000 C 
ATOM      9  C   UNL     1     -43.398 -15.648 -24.173  0.00  0.00    +0.000 C 
ATOM     10  C   UNL     1     -42.377 -14.573 -24.217  0.00  0.00    +0.000 C 
ATOM     11  O   UNL     1     -41.668 -14.408 -25.245  0.00  0.00    +0.000 OA
ATOM     12  C   UNL     1     -42.183 -13.646 -23.053  0.00  0.00    +0.000 C 
ATOM     13  C   UNL     1     -42.560 -14.307 -21.729  0.00  0.00    +0.000 C 
ATOM     14  C   UNL     1     -42.596 -13.245 -20.652  0.00  0.00    +0.000 C 
ATOM     15  C   UNL     1     -41.523 -15.349 -21.340  0.00  0.00    +0.000 C 
ATOM     16  C   UNL     1     -43.947 -14.946 -21.831  0.00  0.00    +0.000 C 
ATOM     17  H   UNL     1     -46.539 -19.273 -23.297  0.00  0.00    +0.000 HD
ATOM     18  H   UNL     1     -45.549 -17.077 -22.069  0.00  0.00    +0.000 HD
ENDROOT
BRANCH   1  29
ATOM     19  C   UNL     1     -42.119 -16.652 -28.068  0.00  0.00    +0.000 C 
ATOM     20  C   UNL     1     -43.326 -15.799 -27.866  0.00  0.00    +0.000 A 
ATOM     21  N   UNL     1     -43.772 -15.050 -28.908  0.00  0.00    +0.000 NA
ATOM     22  C   UNL     1     -44.860 -14.248 -28.789  0.00  0.00    +0.000 A 
ATOM     23  C   UNL     1     -45.305 -13.485 -29.872  0.00  0.00    +0.000 A 
ATOM     24  C   UNL     1     -46.428 -12.664 -29.729  0.00  0.00    +0.000 A 
ATOM     25  C   UNL     1     -47.106 -12.605 -28.506  0.00  0.00    +0.000 A 
ATOM     26  C   UNL     1     -46.663 -13.367 -27.419  0.00  0.00    +0.000 A 
ATOM     27  C   UNL     1     -45.542 -14.189 -27.559  0.00  0.00    +0.000 A 
ATOM     28  N   UNL     1     -45.098 -14.935 -26.515  0.00  0.00    +0.000 NA
ATOM     29  C   UNL     1     -44.010 -15.744 -26.629  0.00  0.00    +0.000 A 
ENDBRANCH   1  29
BRANCH   3  30
ATOM     30  O   UNL     1     -44.525 -19.015 -27.222  0.00  0.00    +0.000 OA
ATOM     31  H   UNL     1     -44.217 -19.871 -27.445  0.00  0.00    +0.000 HD
ENDBRANCH   3  30
TORSDOF 2
ENDMDL
