MODEL 1
REMARK VINA RESULT:      -7.1      0.000      0.000
REMARK  Name = ZINC000100627416
REMARK  4 active torsions:
REMARK  status: ('A' for Active; 'I' for Inactive)
REMARK    1  A    between atoms: C_12  and  C_19
REMARK    2  A    between atoms: N_15  and  C_28
REMARK    3  A    between atoms: N_21  and  C_23
REMARK    4  A    between atoms: C_28  and  C_29
REMARK                            x       y       z     vdW  Elec       q    Type
REMARK                         _______ _______ _______ _____ _____    ______ ____
ROOT
ATOM      1  C   UNL     1     -46.963  -5.704 -21.658  0.00  0.00    +0.000 C 
ATOM      2  C   UNL     1     -47.118  -4.403 -22.372  0.00  0.00    +0.000 A 
ATOM      3  C   UNL     1     -47.296  -3.239 -21.628  0.00  0.00    +0.000 A 
ATOM      4  C   UNL     1     -47.440  -2.015 -22.275  0.00  0.00    +0.000 A 
ATOM      5  C   UNL     1     -47.405  -1.971 -23.668  0.00  0.00    +0.000 A 
ATOM      6  N   UNL     1     -47.231  -3.109 -24.404  0.00  0.00    +0.000 N 
ATOM      7  C   UNL     1     -47.087  -4.326 -23.775  0.00  0.00    +0.000 A 
ATOM      8  N   UNL     1     -46.912  -5.456 -24.511  0.00  0.00    +0.000 NA
ATOM      9  C   UNL     1     -46.868  -5.429 -25.869  0.00  0.00    +0.000 A 
ATOM     10  C   UNL     1     -47.021  -4.201 -26.530  0.00  0.00    +0.000 A 
ATOM     11  C   UNL     1     -46.995  -4.172 -27.921  0.00  0.00    +0.000 A 
ATOM     12  C   UNL     1     -46.829  -5.344 -28.663  0.00  0.00    +0.000 A 
ATOM     13  C   UNL     1     -46.685  -6.568 -27.962  0.00  0.00    +0.000 A 
ATOM     14  N   UNL     1     -46.578  -7.681 -28.616  0.00  0.00    +0.000 NA
ATOM     15  N   UNL     1     -46.683  -6.582 -26.586  0.00  0.00    +0.000 N 
ATOM     16  C   UNL     1     -47.201  -3.036 -25.771  0.00  0.00    +0.000 A 
ATOM     17  O   UNL     1     -47.336  -1.922 -26.356  0.00  0.00    +0.000 OA
ATOM     18  H   UNL     1     -46.579  -7.677 -29.600  0.00  0.00    +0.000 HD
ENDROOT
BRANCH  12  19
ATOM     19  C   UNL     1     -46.817  -5.234 -30.145  0.00  0.00    +0.000 C 
ATOM     20  O   UNL     1     -47.580  -5.971 -30.830  0.00  0.00    +0.000 OA
ATOM     21  N   UNL     1     -45.966  -4.295 -30.813  0.00  0.00    +0.000 N 
ATOM     22  H   UNL     1     -45.398  -3.704 -30.267  0.00  0.00    +0.000 HD
BRANCH  21  23
ATOM     23  C   UNL     1     -45.904  -4.176 -32.262  0.00  0.00    +0.000 C 
ATOM     24  C   UNL     1     -44.493  -4.464 -32.753  0.00  0.00    +0.000 C 
ATOM     25  C   UNL     1     -43.970  -3.178 -33.357  0.00  0.00    +0.000 C 
ATOM     26  C   UNL     1     -45.197  -2.367 -33.702  0.00  0.00    +0.000 C 
ATOM     27  C   UNL     1     -46.226  -2.751 -32.663  0.00  0.00    +0.000 C 
ENDBRANCH  21  23
ENDBRANCH  12  19
BRANCH  15  28
ATOM     28  C   UNL     1     -46.501  -7.853 -25.868  0.00  0.00    +0.000 C 
BRANCH  28  29
ATOM     29  C   UNL     1     -45.029  -8.272 -25.790  0.00  0.00    +0.000 C 
ATOM     30  C   UNL     1     -44.102  -7.077 -25.736  0.00  0.00    +0.000 C 
ATOM     31  C   UNL     1     -43.039  -7.394 -26.741  0.00  0.00    +0.000 C 
ATOM     32  C   UNL     1     -43.317  -8.830 -27.110  0.00  0.00    +0.000 C 
ATOM     33  O   UNL     1     -44.674  -9.089 -26.876  0.00  0.00    +0.000 OA
ENDBRANCH  28  29
ENDBRANCH  15  28
TORSDOF 4
ENDMDL
MODEL 2
REMARK VINA RESULT:      -6.9     11.541     15.113
REMARK  Name = ZINC000100627416
REMARK  4 active torsions:
REMARK  status: ('A' for Active; 'I' for Inactive)
REMARK    1  A    between atoms: C_12  and  C_19
REMARK    2  A    between atoms: N_15  and  C_28
REMARK    3  A    between atoms: N_21  and  C_23
REMARK    4  A    between atoms: C_28  and  C_29
REMARK                            x       y       z     vdW  Elec       q    Type
REMARK                         _______ _______ _______ _____ _____    ______ ____
ROOT
ATOM      1  C   UNL     1     -46.066 -18.074 -19.899  0.00  0.00    +0.000 C 
ATOM      2  C   UNL     1     -44.783 -18.835 -19.878  0.00  0.00    +0.000 A 
ATOM      3  C   UNL     1     -44.264 -19.253 -18.654  0.00  0.00    +0.000 A 
ATOM      4  C   UNL     1     -43.069 -19.967 -18.613  0.00  0.00    +0.000 A 
ATOM      5  C   UNL     1     -42.404 -20.255 -19.804  0.00  0.00    +0.000 A 
ATOM      6  N   UNL     1     -42.909 -19.847 -21.007  0.00  0.00    +0.000 N 
ATOM      7  C   UNL     1     -44.089 -19.141 -21.061  0.00  0.00    +0.000 A 
ATOM      8  N   UNL     1     -44.589 -18.739 -22.260  0.00  0.00    +0.000 NA
ATOM      9  C   UNL     1     -43.956 -19.018 -23.431  0.00  0.00    +0.000 A 
ATOM     10  C   UNL     1     -42.747 -19.729 -23.398  0.00  0.00    +0.000 A 
ATOM     11  C   UNL     1     -42.088 -20.000 -24.594  0.00  0.00    +0.000 A 
ATOM     12  C   UNL     1     -42.606 -19.567 -25.816  0.00  0.00    +0.000 A 
ATOM     13  C   UNL     1     -43.826 -18.844 -25.811  0.00  0.00    +0.000 A 
ATOM     14  N   UNL     1     -44.313 -18.385 -26.920  0.00  0.00    +0.000 NA
ATOM     15  N   UNL     1     -44.485 -18.607 -24.627  0.00  0.00    +0.000 N 
ATOM     16  C   UNL     1     -42.233 -20.144 -22.162  0.00  0.00    +0.000 A 
ATOM     17  O   UNL     1     -41.146 -20.789 -22.120  0.00  0.00    +0.000 OA
ATOM     18  H   UNL     1     -43.845 -18.552 -27.770  0.00  0.00    +0.000 HD
ENDROOT
BRANCH  12  19
ATOM     19  C   UNL     1     -41.842 -19.891 -27.050  0.00  0.00    +0.000 C 
ATOM     20  O   UNL     1     -40.580 -19.908 -27.013  0.00  0.00    +0.000 OA
ATOM     21  N   UNL     1     -42.512 -20.198 -28.278  0.00  0.00    +0.000 N 
ATOM     22  H   UNL     1     -43.496 -20.211 -28.286  0.00  0.00    +0.000 HD
BRANCH  21  23
ATOM     23  C   UNL     1     -41.800 -20.492 -29.513  0.00  0.00    +0.000 C 
ATOM     24  C   UNL     1     -42.339 -19.632 -30.647  0.00  0.00    +0.000 C 
ATOM     25  C   UNL     1     -42.974 -20.576 -31.646  0.00  0.00    +0.000 C 
ATOM     26  C   UNL     1     -42.344 -21.923 -31.385  0.00  0.00    +0.000 C 
ATOM     27  C   UNL     1     -42.045 -21.936 -29.903  0.00  0.00    +0.000 C 
ENDBRANCH  21  23
ENDBRANCH  12  19
BRANCH  15  28
ATOM     28  C   UNL     1     -45.766 -17.883 -24.635  0.00  0.00    +0.000 C 
BRANCH  28  29
ATOM     29  C   UNL     1     -45.594 -16.390 -24.337  0.00  0.00    +0.000 C 
ATOM     30  C   UNL     1     -46.720 -15.563 -24.918  0.00  0.00    +0.000 C 
ATOM     31  C   UNL     1     -46.024 -14.424 -25.595  0.00  0.00    +0.000 C 
ATOM     32  C   UNL     1     -44.590 -14.569 -25.150  0.00  0.00    +0.000 C 
ATOM     33  O   UNL     1     -44.366 -15.913 -24.823  0.00  0.00    +0.000 OA
ENDBRANCH  28  29
ENDBRANCH  15  28
TORSDOF 4
ENDMDL
MODEL 3
REMARK VINA RESULT:      -6.6      9.164     12.646
REMARK  Name = ZINC000100627416
REMARK  4 active torsions:
REMARK  status: ('A' for Active; 'I' for Inactive)
REMARK    1  A    between atoms: C_12  and  C_19
REMARK    2  A    between atoms: N_15  and  C_28
REMARK    3  A    between atoms: N_21  and  C_23
REMARK    4  A    between atoms: C_28  and  C_29
REMARK                            x       y       z     vdW  Elec       q    Type
REMARK                         _______ _______ _______ _____ _____    ______ ____
ROOT
ATOM      1  C   UNL     1     -47.005 -13.140 -20.665  0.00  0.00    +0.000 C 
ATOM      2  C   UNL     1     -46.655 -14.537 -20.277  0.00  0.00    +0.000 A 
ATOM      3  C   UNL     1     -46.792 -14.925 -18.946  0.00  0.00    +0.000 A 
ATOM      4  C   UNL     1     -46.473 -16.225 -18.563  0.00  0.00    +0.000 A 
ATOM      5  C   UNL     1     -46.018 -17.127 -19.525  0.00  0.00    +0.000 A 
ATOM      6  N   UNL     1     -45.882 -16.753 -20.832  0.00  0.00    +0.000 N 
ATOM      7  C   UNL     1     -46.194 -15.470 -21.222  0.00  0.00    +0.000 A 
ATOM      8  N   UNL     1     -46.059 -15.102 -22.524  0.00  0.00    +0.000 NA
ATOM      9  C   UNL     1     -45.624 -15.972 -23.474  0.00  0.00    +0.000 A 
ATOM     10  C   UNL     1     -45.292 -17.282 -23.097  0.00  0.00    +0.000 A 
ATOM     11  C   UNL     1     -44.828 -18.169 -24.064  0.00  0.00    +0.000 A 
ATOM     12  C   UNL     1     -44.681 -17.772 -25.395  0.00  0.00    +0.000 A 
ATOM     13  C   UNL     1     -45.019 -16.438 -25.738  0.00  0.00    +0.000 A 
ATOM     14  N   UNL     1     -44.850 -16.018 -26.953  0.00  0.00    +0.000 NA
ATOM     15  N   UNL     1     -45.504 -15.577 -24.781  0.00  0.00    +0.000 N 
ATOM     16  C   UNL     1     -45.432 -17.660 -21.754  0.00  0.00    +0.000 A 
ATOM     17  O   UNL     1     -45.139 -18.840 -21.402  0.00  0.00    +0.000 OA
ATOM     18  H   UNL     1     -44.503 -16.631 -27.642  0.00  0.00    +0.000 HD
ENDROOT
BRANCH  12  19
ATOM     19  C   UNL     1     -44.176 -18.774 -26.369  0.00  0.00    +0.000 C 
ATOM     20  O   UNL     1     -44.742 -19.899 -26.453  0.00  0.00    +0.000 OA
ATOM     21  N   UNL     1     -43.066 -18.482 -27.225  0.00  0.00    +0.000 N 
ATOM     22  H   UNL     1     -42.653 -17.590 -27.172  0.00  0.00    +0.000 HD
BRANCH  21  23
ATOM     23  C   UNL     1     -42.524 -19.446 -28.172  0.00  0.00    +0.000 C 
ATOM     24  C   UNL     1     -41.339 -20.176 -27.557  0.00  0.00    +0.000 C 
ATOM     25  C   UNL     1     -40.121 -19.793 -28.370  0.00  0.00    +0.000 C 
ATOM     26  C   UNL     1     -40.656 -19.326 -29.702  0.00  0.00    +0.000 C 
ATOM     27  C   UNL     1     -42.002 -18.714 -29.392  0.00  0.00    +0.000 C 
ENDBRANCH  21  23
ENDBRANCH  12  19
BRANCH  15  28
ATOM     28  C   UNL     1     -45.881 -14.205 -25.155  0.00  0.00    +0.000 C 
BRANCH  28  29
ATOM     29  C   UNL     1     -44.706 -13.227 -25.044  0.00  0.00    +0.000 C 
ATOM     30  C   UNL     1     -45.122 -11.910 -24.424  0.00  0.00    +0.000 C 
ATOM     31  C   UNL     1     -44.519 -10.877 -25.323  0.00  0.00    +0.000 C 
ATOM     32  C   UNL     1     -43.626 -11.679 -26.237  0.00  0.00    +0.000 C 
ATOM     33  O   UNL     1     -44.123 -12.988 -26.299  0.00  0.00    +0.000 OA
ENDBRANCH  28  29
ENDBRANCH  15  28
TORSDOF 4
ENDMDL
