MODEL 1
REMARK VINA RESULT:      -7.6      0.000      0.000
REMARK  Name = ZINC000096181260 ZINC96181260 PubChem-97457132
REMARK  4 active torsions:
REMARK  status: ('A' for Active; 'I' for Inactive)
REMARK    1  A    between atoms: C_5  and  C_8
REMARK    2  A    between atoms: C_9  and  C_13
REMARK    3  A    between atoms: C_14  and  C_15
REMARK    4  A    between atoms: C_14  and  N_24
REMARK                            x       y       z     vdW  Elec       q    Type
REMARK                         _______ _______ _______ _____ _____    ______ ____
ROOT
ATOM      1  C   UNL     1     -46.999  -5.721 -26.642  0.00  0.00    +0.000 C 
ATOM      2  C   UNL     1     -45.898  -5.415 -27.676  0.00  0.00    +0.000 C 
ATOM      3  C   UNL     1     -44.924  -6.600 -27.685  0.00  0.00    +0.000 C 
ATOM      4  C   UNL     1     -45.464  -7.489 -26.639  0.00  0.00    +0.000 C 
ATOM      5  C   UNL     1     -47.503  -7.750 -25.156  0.00  0.00    +0.000 C 
ATOM      6  O   UNL     1     -44.953  -8.599 -26.332  0.00  0.00    +0.000 OA
ATOM      7  N   UNL     1     -46.628  -6.980 -26.025  0.00  0.00    +0.000 N 
ENDROOT
BRANCH   1  12
ATOM      8  C   UNL     1     -47.355  -1.437 -22.770  0.00  0.00    +0.000 C 
ATOM      9  C   UNL     1     -47.263  -2.543 -23.758  0.00  0.00    +0.000 A 
ATOM     10  C   UNL     1     -47.401  -2.273 -25.123  0.00  0.00    +0.000 A 
ATOM     11  C   UNL     1     -47.316  -3.313 -26.054  0.00  0.00    +0.000 A 
ATOM     12  C   UNL     1     -47.094  -4.625 -25.624  0.00  0.00    +0.000 A 
ATOM     13  C   UNL     1     -46.953  -4.892 -24.253  0.00  0.00    +0.000 A 
ATOM     14  C   UNL     1     -47.040  -3.852 -23.323  0.00  0.00    +0.000 A 
ENDBRANCH   1  12
BRANCH   2  15
ATOM     15  C   UNL     1     -46.493  -5.211 -29.030  0.00  0.00    +0.000 C 
ATOM     16  O   UNL     1     -47.126  -6.155 -29.574  0.00  0.00    +0.000 OA
ATOM     17  N   UNL     1     -46.340  -3.959 -29.702  0.00  0.00    +0.000 NA
BRANCH  17  18
ATOM     18  C   UNL     1     -46.891  -3.722 -31.026  0.00  0.00    +0.000 C 
BRANCH  18  19
ATOM     19  C   UNL     1     -45.977  -2.831 -31.796  0.00  0.00    +0.000 A 
ATOM     20  C   UNL     1     -45.302  -1.801 -31.134  0.00  0.00    +0.000 A 
ATOM     21  C   UNL     1     -44.422  -0.973 -31.836  0.00  0.00    +0.000 A 
ATOM     22  C   UNL     1     -44.213  -1.174 -33.204  0.00  0.00    +0.000 A 
ATOM     23  C   UNL     1     -44.881  -2.207 -33.868  0.00  0.00    +0.000 A 
ATOM     24  C   UNL     1     -45.761  -3.038 -33.168  0.00  0.00    +0.000 A 
ATOM     25  F   UNL     1     -46.397  -4.040 -33.824  0.00  0.00    +0.000 F 
ENDBRANCH  18  19
ENDBRANCH  17  18
ENDBRANCH   2  15
TORSDOF 4
ENDMDL
MODEL 2
REMARK VINA RESULT:      -7.1     10.621     14.743
REMARK  Name = ZINC000096181260 ZINC96181260 PubChem-97457132
REMARK  4 active torsions:
REMARK  status: ('A' for Active; 'I' for Inactive)
REMARK    1  A    between atoms: C_5  and  C_8
REMARK    2  A    between atoms: C_9  and  C_13
REMARK    3  A    between atoms: C_14  and  C_15
REMARK    4  A    between atoms: C_14  and  N_24
REMARK                            x       y       z     vdW  Elec       q    Type
REMARK                         _______ _______ _______ _____ _____    ______ ____
ROOT
ATOM      1  C   UNL     1     -43.934 -16.668 -25.810  0.00  0.00    +0.000 C 
ATOM      2  C   UNL     1     -44.553 -18.024 -26.201  0.00  0.00    +0.000 C 
ATOM      3  C   UNL     1     -43.449 -18.875 -26.841  0.00  0.00    +0.000 C 
ATOM      4  C   UNL     1     -42.283 -17.970 -26.841  0.00  0.00    +0.000 C 
ATOM      5  C   UNL     1     -41.552 -15.723 -25.924  0.00  0.00    +0.000 C 
ATOM      6  O   UNL     1     -41.147 -18.292 -27.281  0.00  0.00    +0.000 OA
ATOM      7  N   UNL     1     -42.563 -16.705 -26.281  0.00  0.00    +0.000 N 
ENDROOT
BRANCH   1  12
ATOM      8  C   UNL     1     -46.804 -12.293 -28.278  0.00  0.00    +0.000 C 
ATOM      9  C   UNL     1     -46.072 -13.417 -27.637  0.00  0.00    +0.000 A 
ATOM     10  C   UNL     1     -45.166 -14.175 -28.383  0.00  0.00    +0.000 A 
ATOM     11  C   UNL     1     -44.476 -15.232 -27.782  0.00  0.00    +0.000 A 
ATOM     12  C   UNL     1     -44.691 -15.536 -26.434  0.00  0.00    +0.000 A 
ATOM     13  C   UNL     1     -45.599 -14.769 -25.686  0.00  0.00    +0.000 A 
ATOM     14  C   UNL     1     -46.289 -13.713 -26.289  0.00  0.00    +0.000 A 
ENDBRANCH   1  12
BRANCH   2  15
ATOM     15  C   UNL     1     -45.116 -18.708 -24.999  0.00  0.00    +0.000 C 
ATOM     16  O   UNL     1     -46.022 -19.571 -25.148  0.00  0.00    +0.000 OA
ATOM     17  N   UNL     1     -44.635 -18.381 -23.694  0.00  0.00    +0.000 NA
BRANCH  17  18
ATOM     18  C   UNL     1     -45.164 -19.013 -22.496  0.00  0.00    +0.000 C 
BRANCH  18  19
ATOM     19  C   UNL     1     -45.533 -17.968 -21.500  0.00  0.00    +0.000 A 
ATOM     20  C   UNL     1     -45.381 -16.618 -21.833  0.00  0.00    +0.000 A 
ATOM     21  C   UNL     1     -45.745 -15.625 -20.919  0.00  0.00    +0.000 A 
ATOM     22  C   UNL     1     -46.267 -15.978 -19.671  0.00  0.00    +0.000 A 
ATOM     23  C   UNL     1     -46.426 -17.326 -19.338  0.00  0.00    +0.000 A 
ATOM     24  C   UNL     1     -46.063 -18.323 -20.250  0.00  0.00    +0.000 A 
ATOM     25  F   UNL     1     -46.230 -19.627 -19.915  0.00  0.00    +0.000 F 
ENDBRANCH  18  19
ENDBRANCH  17  18
ENDBRANCH   2  15
TORSDOF 4
ENDMDL
MODEL 3
REMARK VINA RESULT:      -7.1      1.777      2.325
REMARK  Name = ZINC000096181260 ZINC96181260 PubChem-97457132
REMARK  4 active torsions:
REMARK  status: ('A' for Active; 'I' for Inactive)
REMARK    1  A    between atoms: C_5  and  C_8
REMARK    2  A    between atoms: C_9  and  C_13
REMARK    3  A    between atoms: C_14  and  C_15
REMARK    4  A    between atoms: C_14  and  N_24
REMARK                            x       y       z     vdW  Elec       q    Type
REMARK                         _______ _______ _______ _____ _____    ______ ____
ROOT
ATOM      1  C   UNL     1     -46.401  -6.352 -28.609  0.00  0.00    +0.000 C 
ATOM      2  C   UNL     1     -45.087  -5.890 -29.267  0.00  0.00    +0.000 C 
ATOM      3  C   UNL     1     -44.190  -7.124 -29.434  0.00  0.00    +0.000 C 
ATOM      4  C   UNL     1     -44.987  -8.206 -28.825  0.00  0.00    +0.000 C 
ATOM      5  C   UNL     1     -47.313  -8.649 -27.920  0.00  0.00    +0.000 C 
ATOM      6  O   UNL     1     -44.607  -9.405 -28.765  0.00  0.00    +0.000 OA
ATOM      7  N   UNL     1     -46.233  -7.766 -28.331  0.00  0.00    +0.000 N 
ENDROOT
BRANCH   1  12
ATOM      8  C   UNL     1     -47.437  -3.305 -23.802  0.00  0.00    +0.000 C 
ATOM      9  C   UNL     1     -47.170  -4.095 -25.032  0.00  0.00    +0.000 A 
ATOM     10  C   UNL     1     -47.422  -3.537 -26.288  0.00  0.00    +0.000 A 
ATOM     11  C   UNL     1     -47.171  -4.279 -27.446  0.00  0.00    +0.000 A 
ATOM     12  C   UNL     1     -46.670  -5.581 -27.353  0.00  0.00    +0.000 A 
ATOM     13  C   UNL     1     -46.414  -6.137 -26.090  0.00  0.00    +0.000 A 
ATOM     14  C   UNL     1     -46.666  -5.394 -24.932  0.00  0.00    +0.000 A 
ENDBRANCH   1  12
BRANCH   2  15
ATOM     15  C   UNL     1     -45.359  -5.254 -30.590  0.00  0.00    +0.000 C 
ATOM     16  O   UNL     1     -46.549  -5.005 -30.923  0.00  0.00    +0.000 OA
ATOM     17  N   UNL     1     -44.279  -4.936 -31.471  0.00  0.00    +0.000 NA
BRANCH  17  18
ATOM     18  C   UNL     1     -44.499  -4.328 -32.773  0.00  0.00    +0.000 C 
BRANCH  18  19
ATOM     19  C   UNL     1     -43.991  -2.927 -32.762  0.00  0.00    +0.000 A 
ATOM     20  C   UNL     1     -42.722  -2.652 -33.285  0.00  0.00    +0.000 A 
ATOM     21  C   UNL     1     -42.240  -1.340 -33.305  0.00  0.00    +0.000 A 
ATOM     22  C   UNL     1     -43.027  -0.298 -32.807  0.00  0.00    +0.000 A 
ATOM     23  C   UNL     1     -44.298  -0.567 -32.290  0.00  0.00    +0.000 A 
ATOM     24  C   UNL     1     -44.784  -1.879 -32.269  0.00  0.00    +0.000 A 
ATOM     25  F   UNL     1     -46.021  -2.124 -31.771  0.00  0.00    +0.000 F 
ENDBRANCH  18  19
ENDBRANCH  17  18
ENDBRANCH   2  15
TORSDOF 4
ENDMDL
