MODEL 1
REMARK VINA RESULT:      -7.8      0.000      0.000
REMARK  Name = ZINC000096117524
REMARK  4 active torsions:
REMARK  status: ('A' for Active; 'I' for Inactive)
REMARK    1  A    between atoms: C_4  and  C_30
REMARK    2  A    between atoms: C_8  and  O_9
REMARK    3  A    between atoms: C_10  and  O_11
REMARK    4  A    between atoms: C_14  and  C_21
REMARK                            x       y       z     vdW  Elec       q    Type
REMARK                         _______ _______ _______ _____ _____    ______ ____
ROOT
ATOM      1  O   UNL     1     -47.036  -3.888 -31.473  0.00  0.00    +0.000 OA
ATOM      2  C   UNL     1     -47.029  -4.597 -30.431  0.00  0.00    +0.000 A 
ATOM      3  C   UNL     1     -47.089  -3.965 -29.196  0.00  0.00    +0.000 A 
ATOM      4  C   UNL     1     -47.089  -4.733 -28.030  0.00  0.00    +0.000 A 
ATOM      5  O   UNL     1     -47.018  -6.060 -28.113  0.00  0.00    +0.000 OA
ATOM      6  C   UNL     1     -46.944  -6.723 -29.267  0.00  0.00    +0.000 A 
ATOM      7  C   UNL     1     -46.969  -6.005 -30.493  0.00  0.00    +0.000 A 
ATOM      8  C   UNL     1     -46.951  -6.711 -31.713  0.00  0.00    +0.000 A 
ATOM      9  C   UNL     1     -46.940  -8.106 -31.712  0.00  0.00    +0.000 A 
ATOM     10  C   UNL     1     -46.909  -8.818 -30.512  0.00  0.00    +0.000 A 
ATOM     11  C   UNL     1     -46.847  -8.137 -29.273  0.00  0.00    +0.000 A 
ATOM     12  C   UNL     1     -46.823  -8.965 -27.982  0.00  0.00    +0.000 C 
ATOM     13  C   UNL     1     -46.260 -10.375 -28.184  0.00  0.00    +0.000 C 
ATOM     14  C   UNL     1     -46.802 -10.994 -29.421  0.00  0.00    +0.000 C 
ATOM     15  O   UNL     1     -47.084 -12.219 -29.447  0.00  0.00    +0.000 OA
ATOM     16  O   UNL     1     -46.968 -10.214 -30.562  0.00  0.00    +0.000 OA
ENDROOT
BRANCH  12  17
ATOM     17  C   UNL     1     -46.073  -8.338 -26.839  0.00  0.00    +0.000 A 
ATOM     18  C   UNL     1     -46.690  -8.297 -25.583  0.00  0.00    +0.000 A 
ATOM     19  C   UNL     1     -46.014  -7.769 -24.481  0.00  0.00    +0.000 A 
ATOM     20  C   UNL     1     -44.716  -7.275 -24.625  0.00  0.00    +0.000 A 
ATOM     21  F   UNL     1     -44.070  -6.758 -23.553  0.00  0.00    +0.000 F 
ATOM     22  C   UNL     1     -44.086  -7.318 -25.875  0.00  0.00    +0.000 A 
ATOM     23  F   UNL     1     -42.822  -6.845 -26.013  0.00  0.00    +0.000 F 
ATOM     24  C   UNL     1     -44.755  -7.858 -26.980  0.00  0.00    +0.000 A 
ATOM     25  F   UNL     1     -44.125  -7.914 -28.180  0.00  0.00    +0.000 F 
ENDBRANCH  12  17
BRANCH   4  26
ATOM     26  C   UNL     1     -47.169  -4.081 -26.707  0.00  0.00    +0.000 A 
ATOM     27  C   UNL     1     -47.257  -2.686 -26.618  0.00  0.00    +0.000 A 
ATOM     28  C   UNL     1     -47.334  -2.056 -25.372  0.00  0.00    +0.000 A 
ATOM     29  C   UNL     1     -47.322  -2.818 -24.202  0.00  0.00    +0.000 A 
ATOM     30  C   UNL     1     -47.233  -4.210 -24.277  0.00  0.00    +0.000 A 
ATOM     31  C   UNL     1     -47.156  -4.839 -25.523  0.00  0.00    +0.000 A 
ENDBRANCH   4  26
BRANCH   8  32
ATOM     32  O   UNL     1     -46.964  -6.043 -32.934  0.00  0.00    +0.000 OA
ATOM     33  H   UNL     1     -46.767  -6.507 -33.725  0.00  0.00    +0.000 HD
ENDBRANCH   8  32
BRANCH   9  34
ATOM     34  O   UNL     1     -46.967  -8.795 -32.921  0.00  0.00    +0.000 OA
ATOM     35  H   UNL     1     -46.277  -8.676 -33.543  0.00  0.00    +0.000 HD
ENDBRANCH   9  34
TORSDOF 4
ENDMDL
MODEL 2
REMARK VINA RESULT:      -7.7      8.788     11.296
REMARK  Name = ZINC000096117524
REMARK  4 active torsions:
REMARK  status: ('A' for Active; 'I' for Inactive)
REMARK    1  A    between atoms: C_4  and  C_30
REMARK    2  A    between atoms: C_8  and  O_9
REMARK    3  A    between atoms: C_10  and  O_11
REMARK    4  A    between atoms: C_14  and  C_21
REMARK                            x       y       z     vdW  Elec       q    Type
REMARK                         _______ _______ _______ _____ _____    ______ ____
ROOT
ATOM      1  O   UNL     1     -45.804 -11.958 -24.141  0.00  0.00    +0.000 OA
ATOM      2  C   UNL     1     -45.807 -13.087 -23.582  0.00  0.00    +0.000 A 
ATOM      3  C   UNL     1     -46.120 -13.159 -22.231  0.00  0.00    +0.000 A 
ATOM      4  C   UNL     1     -46.137 -14.402 -21.594  0.00  0.00    +0.000 A 
ATOM      5  O   UNL     1     -45.840 -15.501 -22.284  0.00  0.00    +0.000 OA
ATOM      6  C   UNL     1     -45.518 -15.495 -23.578  0.00  0.00    +0.000 A 
ATOM      7  C   UNL     1     -45.511 -14.267 -24.294  0.00  0.00    +0.000 A 
ATOM      8  C   UNL     1     -45.229 -14.270 -25.675  0.00  0.00    +0.000 A 
ATOM      9  C   UNL     1     -44.991 -15.475 -26.338  0.00  0.00    +0.000 A 
ATOM     10  C   UNL     1     -44.990 -16.683 -25.639  0.00  0.00    +0.000 A 
ATOM     11  C   UNL     1     -45.192 -16.705 -24.238  0.00  0.00    +0.000 A 
ATOM     12  C   UNL     1     -45.190 -18.060 -23.519  0.00  0.00    +0.000 C 
ATOM     13  C   UNL     1     -44.383 -19.132 -24.259  0.00  0.00    +0.000 C 
ATOM     14  C   UNL     1     -44.662 -19.096 -25.718  0.00  0.00    +0.000 C 
ATOM     15  O   UNL     1     -44.734 -20.166 -26.377  0.00  0.00    +0.000 OA
ATOM     16  O   UNL     1     -44.813 -17.870 -26.359  0.00  0.00    +0.000 OA
ENDROOT
BRANCH  12  17
ATOM     17  C   UNL     1     -44.697 -18.024 -22.098  0.00  0.00    +0.000 A 
ATOM     18  C   UNL     1     -43.457 -17.430 -21.841  0.00  0.00    +0.000 A 
ATOM     19  C   UNL     1     -42.980 -17.329 -20.532  0.00  0.00    +0.000 A 
ATOM     20  C   UNL     1     -43.737 -17.826 -19.470  0.00  0.00    +0.000 A 
ATOM     21  F   UNL     1     -43.263 -17.731 -18.204  0.00  0.00    +0.000 F 
ATOM     22  C   UNL     1     -44.983 -18.416 -19.714  0.00  0.00    +0.000 A 
ATOM     23  F   UNL     1     -45.722 -18.891 -18.681  0.00  0.00    +0.000 F 
ATOM     24  C   UNL     1     -45.471 -18.507 -21.024  0.00  0.00    +0.000 A 
ATOM     25  F   UNL     1     -46.690 -19.061 -21.245  0.00  0.00    +0.000 F 
ENDBRANCH  12  17
BRANCH   4  26
ATOM     26  C   UNL     1     -46.483 -14.503 -20.162  0.00  0.00    +0.000 A 
ATOM     27  C   UNL     1     -47.007 -15.699 -19.652  0.00  0.00    +0.000 A 
ATOM     28  C   UNL     1     -47.338 -15.809 -18.298  0.00  0.00    +0.000 A 
ATOM     29  C   UNL     1     -47.150 -14.722 -17.441  0.00  0.00    +0.000 A 
ATOM     30  C   UNL     1     -46.631 -13.524 -17.939  0.00  0.00    +0.000 A 
ATOM     31  C   UNL     1     -46.300 -13.414 -19.293  0.00  0.00    +0.000 A 
ENDBRANCH   4  26
BRANCH   8  32
ATOM     32  O   UNL     1     -45.202 -13.087 -26.410  0.00  0.00    +0.000 OA
ATOM     33  H   UNL     1     -45.274 -13.114 -27.344  0.00  0.00    +0.000 HD
ENDBRANCH   8  32
BRANCH   9  34
ATOM     34  O   UNL     1     -44.757 -15.472 -27.709  0.00  0.00    +0.000 OA
ATOM     35  H   UNL     1     -44.979 -14.720 -28.221  0.00  0.00    +0.000 HD
ENDBRANCH   9  34
TORSDOF 4
ENDMDL
MODEL 3
REMARK VINA RESULT:      -7.6     10.578     13.876
REMARK  Name = ZINC000096117524
REMARK  4 active torsions:
REMARK  status: ('A' for Active; 'I' for Inactive)
REMARK    1  A    between atoms: C_4  and  C_30
REMARK    2  A    between atoms: C_8  and  O_9
REMARK    3  A    between atoms: C_10  and  O_11
REMARK    4  A    between atoms: C_14  and  C_21
REMARK                            x       y       z     vdW  Elec       q    Type
REMARK                         _______ _______ _______ _____ _____    ______ ____
ROOT
ATOM      1  O   UNL     1     -44.006 -18.045 -26.226  0.00  0.00    +0.000 OA
ATOM      2  C   UNL     1     -44.000 -17.994 -24.967  0.00  0.00    +0.000 A 
ATOM      3  C   UNL     1     -43.293 -18.962 -24.266  0.00  0.00    +0.000 A 
ATOM      4  C   UNL     1     -43.266 -18.920 -22.871  0.00  0.00    +0.000 A 
ATOM      5  O   UNL     1     -43.930 -17.962 -22.227  0.00  0.00    +0.000 OA
ATOM      6  C   UNL     1     -44.638 -17.014 -22.843  0.00  0.00    +0.000 A 
ATOM      7  C   UNL     1     -44.682 -16.981 -24.262  0.00  0.00    +0.000 A 
ATOM      8  C   UNL     1     -45.381 -15.944 -24.912  0.00  0.00    +0.000 A 
ATOM      9  C   UNL     1     -45.997 -14.940 -24.163  0.00  0.00    +0.000 A 
ATOM     10  C   UNL     1     -45.963 -14.970 -22.768  0.00  0.00    +0.000 A 
ATOM     11  C   UNL     1     -45.336 -16.041 -22.086  0.00  0.00    +0.000 A 
ATOM     12  C   UNL     1     -45.318 -16.022 -20.552  0.00  0.00    +0.000 C 
ATOM     13  C   UNL     1     -46.471 -15.214 -19.948  0.00  0.00    +0.000 C 
ATOM     14  C   UNL     1     -46.664 -13.933 -20.678  0.00  0.00    +0.000 C 
ATOM     15  O   UNL     1     -46.967 -12.885 -20.051  0.00  0.00    +0.000 OA
ATOM     16  O   UNL     1     -46.536 -13.907 -22.063  0.00  0.00    +0.000 OA
ENDROOT
BRANCH  12  17
ATOM     17  C   UNL     1     -45.328 -17.378 -19.900  0.00  0.00    +0.000 A 
ATOM     18  C   UNL     1     -46.373 -18.255 -20.209  0.00  0.00    +0.000 A 
ATOM     19  C   UNL     1     -46.399 -19.542 -19.666  0.00  0.00    +0.000 A 
ATOM     20  C   UNL     1     -45.381 -19.961 -18.808  0.00  0.00    +0.000 A 
ATOM     21  F   UNL     1     -45.417 -21.209 -18.280  0.00  0.00    +0.000 F 
ATOM     22  C   UNL     1     -44.325 -19.095 -18.499  0.00  0.00    +0.000 A 
ATOM     23  F   UNL     1     -43.332 -19.506 -17.671  0.00  0.00    +0.000 F 
ATOM     24  C   UNL     1     -44.289 -17.808 -19.050  0.00  0.00    +0.000 A 
ATOM     25  F   UNL     1     -43.249 -16.987 -18.760  0.00  0.00    +0.000 F 
ENDBRANCH  12  17
BRANCH   4  26
ATOM     26  C   UNL     1     -42.507 -19.930 -22.107  0.00  0.00    +0.000 A 
ATOM     27  C   UNL     1     -42.236 -21.181 -22.678  0.00  0.00    +0.000 A 
ATOM     28  C   UNL     1     -41.518 -22.146 -21.966  0.00  0.00    +0.000 A 
ATOM     29  C   UNL     1     -41.065 -21.870 -20.674  0.00  0.00    +0.000 A 
ATOM     30  C   UNL     1     -41.332 -20.628 -20.093  0.00  0.00    +0.000 A 
ATOM     31  C   UNL     1     -42.050 -19.663 -20.805  0.00  0.00    +0.000 A 
ENDBRANCH   4  26
BRANCH   8  32
ATOM     32  O   UNL     1     -45.456 -15.883 -26.301  0.00  0.00    +0.000 OA
ATOM     33  H   UNL     1     -46.010 -16.478 -26.767  0.00  0.00    +0.000 HD
ENDBRANCH   8  32
BRANCH   9  34
ATOM     34  O   UNL     1     -46.647 -13.897 -24.814  0.00  0.00    +0.000 OA
ATOM     35  H   UNL     1     -46.699 -13.053 -24.410  0.00  0.00    +0.000 HD
ENDBRANCH   9  34
TORSDOF 4
ENDMDL
