MODEL 1
REMARK VINA RESULT:      -7.5      0.000      0.000
REMARK  Name = ZINC000031810529
REMARK  1 active torsions:
REMARK  status: ('A' for Active; 'I' for Inactive)
REMARK    1  A    between atoms: C_7  and  C_24
REMARK                            x       y       z     vdW  Elec       q    Type
REMARK                         _______ _______ _______ _____ _____    ______ ____
ROOT
ATOM      1  C   UNL     1     -42.859  -5.923 -34.703  0.00  0.00    +0.000 C 
ATOM      2  C   UNL     1     -43.658  -6.103 -33.458  0.00  0.00    +0.000 A 
ATOM      3  N   UNL     1     -43.545  -7.176 -32.655  0.00  0.00    +0.000 NA
ATOM      4  N   UNL     1     -44.385  -7.009 -31.646  0.00  0.00    +0.000 N 
ATOM      5  C   UNL     1     -45.019  -5.820 -31.769  0.00  0.00    +0.000 A 
ATOM      6  C   UNL     1     -44.586  -5.213 -32.947  0.00  0.00    +0.000 A 
ATOM      7  C   UNL     1     -44.912  -3.879 -33.560  0.00  0.00    +0.000 C 
ATOM      8  S   UNL     1     -46.607  -3.291 -33.258  0.00  0.00    +0.000 S 
ATOM      9  C   UNL     1     -46.258  -2.904 -31.526  0.00  0.00    +0.000 C 
ATOM     10  C   UNL     1     -46.599  -4.065 -30.669  0.00  0.00    +0.000 C 
ATOM     11  O   UNL     1     -47.480  -3.915 -29.782  0.00  0.00    +0.000 OA
ATOM     12  N   UNL     1     -45.943  -5.331 -30.781  0.00  0.00    +0.000 N 
ATOM     13  H   UNL     1     -46.159  -5.972 -30.067  0.00  0.00    +0.000 HD
ATOM     14  C   UNL     1     -44.504  -7.957 -30.576  0.00  0.00    +0.000 A 
ATOM     15  N   UNL     1     -43.389  -8.577 -30.083  0.00  0.00    +0.000 NA
ATOM     16  C   UNL     1     -43.470  -9.510 -29.081  0.00  0.00    +0.000 A 
ATOM     17  N   UNL     1     -44.682  -9.857 -28.555  0.00  0.00    +0.000 NA
ATOM     18  C   UNL     1     -45.789  -9.256 -29.051  0.00  0.00    +0.000 A 
ATOM     19  N   UNL     1     -47.058  -9.507 -28.705  0.00  0.00    +0.000 N 
ATOM     20  C   UNL     1     -47.756  -8.690 -29.539  0.00  0.00    +0.000 A 
ATOM     21  N   UNL     1     -46.974  -7.959 -30.379  0.00  0.00    +0.000 NA
ATOM     22  C   UNL     1     -45.734  -8.334 -30.036  0.00  0.00    +0.000 A 
ATOM     23  H   UNL     1     -47.398 -10.126 -28.020  0.00  0.00    +0.000 HD
ENDROOT
BRANCH   7  24
ATOM     24  C   UNL     1     -43.858  -2.823 -33.362  0.00  0.00    +0.000 A 
ATOM     25  C   UNL     1     -44.225  -1.475 -33.432  0.00  0.00    +0.000 A 
ATOM     26  C   UNL     1     -43.270  -0.473 -33.241  0.00  0.00    +0.000 A 
ATOM     27  C   UNL     1     -41.941  -0.813 -32.975  0.00  0.00    +0.000 A 
ATOM     28  F   UNL     1     -41.020   0.164 -32.790  0.00  0.00    +0.000 F 
ATOM     29  C   UNL     1     -41.566  -2.160 -32.899  0.00  0.00    +0.000 A 
ATOM     30  F   UNL     1     -40.280  -2.499 -32.640  0.00  0.00    +0.000 F 
ATOM     31  C   UNL     1     -42.522  -3.161 -33.090  0.00  0.00    +0.000 A 
ENDBRANCH   7  24
TORSDOF 1
ENDMDL
MODEL 2
REMARK VINA RESULT:      -7.5      3.901      7.304
REMARK  Name = ZINC000031810529
REMARK  1 active torsions:
REMARK  status: ('A' for Active; 'I' for Inactive)
REMARK    1  A    between atoms: C_7  and  C_24
REMARK                            x       y       z     vdW  Elec       q    Type
REMARK                         _______ _______ _______ _____ _____    ______ ____
ROOT
ATOM      1  C   UNL     1     -42.541  -6.748 -27.495  0.00  0.00    +0.000 C 
ATOM      2  C   UNL     1     -43.043  -6.097 -28.738  0.00  0.00    +0.000 A 
ATOM      3  N   UNL     1     -42.244  -5.724 -29.753  0.00  0.00    +0.000 NA
ATOM      4  N   UNL     1     -43.011  -5.191 -30.690  0.00  0.00    +0.000 N 
ATOM      5  C   UNL     1     -44.308  -5.245 -30.306  0.00  0.00    +0.000 A 
ATOM      6  C   UNL     1     -44.365  -5.810 -29.033  0.00  0.00    +0.000 A 
ATOM      7  C   UNL     1     -45.528  -6.154 -28.144  0.00  0.00    +0.000 C 
ATOM      8  S   UNL     1     -46.958  -5.036 -28.288  0.00  0.00    +0.000 S 
ATOM      9  C   UNL     1     -47.427  -5.703 -29.902  0.00  0.00    +0.000 C 
ATOM     10  C   UNL     1     -46.800  -4.902 -30.982  0.00  0.00    +0.000 C 
ATOM     11  O   UNL     1     -47.552  -4.315 -31.803  0.00  0.00    +0.000 OA
ATOM     12  N   UNL     1     -45.384  -4.805 -31.152  0.00  0.00    +0.000 N 
ATOM     13  H   UNL     1     -45.098  -4.363 -31.984  0.00  0.00    +0.000 HD
ATOM     14  C   UNL     1     -42.488  -4.711 -31.936  0.00  0.00    +0.000 A 
ATOM     15  N   UNL     1     -41.485  -5.395 -32.566  0.00  0.00    +0.000 NA
ATOM     16  C   UNL     1     -40.941  -4.947 -33.743  0.00  0.00    +0.000 A 
ATOM     17  N   UNL     1     -41.383  -3.786 -34.312  0.00  0.00    +0.000 NA
ATOM     18  C   UNL     1     -42.365  -3.100 -33.683  0.00  0.00    +0.000 A 
ATOM     19  N   UNL     1     -42.882  -1.922 -34.056  0.00  0.00    +0.000 N 
ATOM     20  C   UNL     1     -43.767  -1.661 -33.056  0.00  0.00    +0.000 A 
ATOM     21  N   UNL     1     -43.809  -2.620 -32.091  0.00  0.00    +0.000 NA
ATOM     22  C   UNL     1     -42.916  -3.521 -32.525  0.00  0.00    +0.000 A 
ATOM     23  H   UNL     1     -42.674  -1.383 -34.852  0.00  0.00    +0.000 HD
ENDROOT
BRANCH   7  24
ATOM     24  C   UNL     1     -45.896  -7.612 -28.128  0.00  0.00    +0.000 A 
ATOM     25  C   UNL     1     -46.629  -8.116 -27.047  0.00  0.00    +0.000 A 
ATOM     26  C   UNL     1     -46.994  -9.465 -27.011  0.00  0.00    +0.000 A 
ATOM     27  C   UNL     1     -46.632 -10.317 -28.057  0.00  0.00    +0.000 A 
ATOM     28  F   UNL     1     -46.990 -11.624 -28.016  0.00  0.00    +0.000 F 
ATOM     29  C   UNL     1     -45.903  -9.819 -29.144  0.00  0.00    +0.000 A 
ATOM     30  F   UNL     1     -45.549 -10.639 -30.164  0.00  0.00    +0.000 F 
ATOM     31  C   UNL     1     -45.538  -8.471 -29.180  0.00  0.00    +0.000 A 
ENDBRANCH   7  24
TORSDOF 1
ENDMDL
MODEL 3
REMARK VINA RESULT:      -7.5     10.992     13.737
REMARK  Name = ZINC000031810529
REMARK  1 active torsions:
REMARK  status: ('A' for Active; 'I' for Inactive)
REMARK    1  A    between atoms: C_7  and  C_24
REMARK                            x       y       z     vdW  Elec       q    Type
REMARK                         _______ _______ _______ _____ _____    ______ ____
ROOT
ATOM      1  C   UNL     1     -42.778 -13.196 -24.192  0.00  0.00    +0.000 C 
ATOM      2  C   UNL     1     -43.583 -14.343 -23.687  0.00  0.00    +0.000 A 
ATOM      3  N   UNL     1     -44.161 -14.366 -22.473  0.00  0.00    +0.000 NA
ATOM      4  N   UNL     1     -44.799 -15.519 -22.356  0.00  0.00    +0.000 N 
ATOM      5  C   UNL     1     -44.668 -16.234 -23.498  0.00  0.00    +0.000 A 
ATOM      6  C   UNL     1     -43.866 -15.509 -24.379  0.00  0.00    +0.000 A 
ATOM      7  C   UNL     1     -43.430 -15.787 -25.791  0.00  0.00    +0.000 C 
ATOM      8  S   UNL     1     -43.183 -17.547 -26.183  0.00  0.00    +0.000 S 
ATOM      9  C   UNL     1     -44.961 -17.882 -26.200  0.00  0.00    +0.000 C 
ATOM     10  C   UNL     1     -45.403 -18.331 -24.857  0.00  0.00    +0.000 C 
ATOM     11  O   UNL     1     -45.912 -19.477 -24.748  0.00  0.00    +0.000 OA
ATOM     12  N   UNL     1     -45.314 -17.504 -23.694  0.00  0.00    +0.000 N 
ATOM     13  H   UNL     1     -45.768 -17.861 -22.898  0.00  0.00    +0.000 HD
ATOM     14  C   UNL     1     -45.557 -15.867 -21.190  0.00  0.00    +0.000 A 
ATOM     15  N   UNL     1     -46.307 -14.917 -20.552  0.00  0.00    +0.000 NA
ATOM     16  C   UNL     1     -47.019 -15.208 -19.417  0.00  0.00    +0.000 A 
ATOM     17  N   UNL     1     -46.986 -16.465 -18.882  0.00  0.00    +0.000 NA
ATOM     18  C   UNL     1     -46.233 -17.404 -19.503  0.00  0.00    +0.000 A 
ATOM     19  N   UNL     1     -46.033 -18.664 -19.097  0.00  0.00    +0.000 N 
ATOM     20  C   UNL     1     -45.162 -19.137 -20.030  0.00  0.00    +0.000 A 
ATOM     21  N   UNL     1     -44.820 -18.223 -20.979  0.00  0.00    +0.000 NA
ATOM     22  C   UNL     1     -45.525 -17.141 -20.621  0.00  0.00    +0.000 A 
ATOM     23  H   UNL     1     -46.418 -19.129 -18.321  0.00  0.00    +0.000 HD
ENDROOT
BRANCH   7  24
ATOM     24  C   UNL     1     -44.193 -15.031 -26.844  0.00  0.00    +0.000 A 
ATOM     25  C   UNL     1     -43.692 -14.994 -28.151  0.00  0.00    +0.000 A 
ATOM     26  C   UNL     1     -44.386 -14.308 -29.152  0.00  0.00    +0.000 A 
ATOM     27  C   UNL     1     -45.586 -13.657 -28.853  0.00  0.00    +0.000 A 
ATOM     28  F   UNL     1     -46.253 -12.995 -29.830  0.00  0.00    +0.000 F 
ATOM     29  C   UNL     1     -46.095 -13.694 -27.550  0.00  0.00    +0.000 A 
ATOM     30  F   UNL     1     -47.259 -13.067 -27.253  0.00  0.00    +0.000 F 
ATOM     31  C   UNL     1     -45.402 -14.380 -26.549  0.00  0.00    +0.000 A 
ENDBRANCH   7  24
TORSDOF 1
ENDMDL
