MODEL 1
REMARK VINA RESULT:      -6.1      0.000      0.000
REMARK  Name = ZINC000003420494 ZINC03420494 PubChem-2539725
REMARK  7 active torsions:
REMARK  status: ('A' for Active; 'I' for Inactive)
REMARK    1  A    between atoms: C_2  and  C_3
REMARK    2  A    between atoms: C_2  and  O_23
REMARK    3  A    between atoms: C_4  and  N_25
REMARK    4  A    between atoms: C_6  and  N_26
REMARK    5  A    between atoms: C_9  and  O_20
REMARK    6  A    between atoms: C_11  and  C_12
REMARK    7  A    between atoms: C_11  and  O_23
REMARK                            x       y       z     vdW  Elec       q    Type
REMARK                         _______ _______ _______ _____ _____    ______ ____
ROOT
ATOM      1  C   UNL     1     -40.736 -19.642 -22.184  0.00  0.00    +0.000 C 
ATOM      2  O   UNL     1     -39.492 -19.712 -21.997  0.00  0.00    +0.000 OA
ATOM      3  N   UNL     1     -41.248 -18.599 -23.027  0.00  0.00    +0.000 NA
ENDROOT
BRANCH   3   4
ATOM      4  C   UNL     1     -42.615 -18.180 -23.166  0.00  0.00    +0.000 A 
ATOM      5  C   UNL     1     -43.520 -18.892 -23.966  0.00  0.00    +0.000 A 
ATOM      6  C   UNL     1     -44.858 -18.495 -24.074  0.00  0.00    +0.000 A 
ATOM      7  C   UNL     1     -45.295 -17.372 -23.361  0.00  0.00    +0.000 A 
ATOM      8  C   UNL     1     -44.407 -16.661 -22.552  0.00  0.00    +0.000 A 
ATOM      9  C   UNL     1     -43.064 -17.062 -22.445  0.00  0.00    +0.000 A 
BRANCH   6  12
ATOM     10  O   UNL     1     -46.929 -18.827 -25.090  0.00  0.00    +0.000 OA
ATOM     11  O   UNL     1     -45.362 -20.411 -25.493  0.00  0.00    +0.000 OA
ATOM     12  N   UNL     1     -45.765 -19.236 -24.901  0.00  0.00    +0.000 N 
ENDBRANCH   6  12
BRANCH   9  14
ATOM     13  C   UNL     1     -41.438 -15.228 -22.089  0.00  0.00    +0.000 C 
ATOM     14  O   UNL     1     -42.164 -16.362 -21.633  0.00  0.00    +0.000 OA
ENDBRANCH   9  14
ENDBRANCH   3   4
BRANCH   1  16
ATOM     15  C   UNL     1     -41.543 -22.026 -22.208  0.00  0.00    +0.000 C 
ATOM     16  C   UNL     1     -41.640 -20.658 -21.550  0.00  0.00    +0.000 C 
BRANCH  16  17
ATOM     17  O   UNL     1     -41.473 -20.722 -20.132  0.00  0.00    +0.000 OA
BRANCH  17  18
ATOM     18  C   UNL     1     -42.519 -20.682 -19.201  0.00  0.00    +0.000 C 
ATOM     19  O   UNL     1     -42.744 -21.661 -18.438  0.00  0.00    +0.000 OA
BRANCH  18  20
ATOM     20  C   UNL     1     -43.363 -19.487 -19.123  0.00  0.00    +0.000 A 
ATOM     21  C   UNL     1     -44.729 -19.448 -19.432  0.00  0.00    +0.000 A 
ATOM     22  C   UNL     1     -45.222 -18.157 -19.247  0.00  0.00    +0.000 A 
ATOM     23  C   UNL     1     -44.323 -17.252 -18.828  0.00  0.00    +0.000 A 
ATOM     24  C   UNL     1     -44.868 -15.900 -18.641  0.00  0.00    +0.000 C 
ATOM     25  C   UNL     1     -46.350 -16.094 -19.030  0.00  0.00    +0.000 C 
ATOM     26  C   UNL     1     -46.563 -17.575 -19.424  0.00  0.00    +0.000 C 
ATOM     27  S   UNL     1     -42.813 -17.950 -18.639  0.00  0.00    +0.000 S 
ENDBRANCH  18  20
ENDBRANCH  17  18
ENDBRANCH  16  17
ENDBRANCH   1  16
TORSDOF 7
ENDMDL
MODEL 2
REMARK VINA RESULT:      -6.0     14.782     16.792
REMARK  Name = ZINC000003420494 ZINC03420494 PubChem-2539725
REMARK  7 active torsions:
REMARK  status: ('A' for Active; 'I' for Inactive)
REMARK    1  A    between atoms: C_2  and  C_3
REMARK    2  A    between atoms: C_2  and  O_23
REMARK    3  A    between atoms: C_4  and  N_25
REMARK    4  A    between atoms: C_6  and  N_26
REMARK    5  A    between atoms: C_9  and  O_20
REMARK    6  A    between atoms: C_11  and  C_12
REMARK    7  A    between atoms: C_11  and  O_23
REMARK                            x       y       z     vdW  Elec       q    Type
REMARK                         _______ _______ _______ _____ _____    ______ ____
ROOT
ATOM      1  C   UNL     1     -44.119  -7.484 -32.203  0.00  0.00    +0.000 C 
ATOM      2  O   UNL     1     -43.126  -8.255 -32.129  0.00  0.00    +0.000 OA
ATOM      3  N   UNL     1     -44.058  -6.366 -33.101  0.00  0.00    +0.000 NA
ENDROOT
BRANCH   3   4
ATOM      4  C   UNL     1     -44.946  -5.239 -33.155  0.00  0.00    +0.000 A 
ATOM      5  C   UNL     1     -44.646  -4.040 -32.492  0.00  0.00    +0.000 A 
ATOM      6  C   UNL     1     -45.501  -2.935 -32.573  0.00  0.00    +0.000 A 
ATOM      7  C   UNL     1     -46.671  -3.033 -33.337  0.00  0.00    +0.000 A 
ATOM      8  C   UNL     1     -46.976  -4.216 -34.011  0.00  0.00    +0.000 A 
ATOM      9  C   UNL     1     -46.115  -5.325 -33.929  0.00  0.00    +0.000 A 
BRANCH   6  12
ATOM     10  O   UNL     1     -45.560  -1.534 -30.711  0.00  0.00    +0.000 OA
ATOM     11  O   UNL     1     -44.440  -0.742 -32.513  0.00  0.00    +0.000 OA
ATOM     12  N   UNL     1     -45.177  -1.720 -31.884  0.00  0.00    +0.000 N 
ENDBRANCH   6  12
BRANCH   9  14
ATOM     13  C   UNL     1     -46.340  -6.634 -36.019  0.00  0.00    +0.000 C 
ATOM     14  O   UNL     1     -46.405  -6.516 -34.603  0.00  0.00    +0.000 OA
ENDBRANCH   9  14
ENDBRANCH   3   4
BRANCH   1  16
ATOM     15  C   UNL     1     -45.471  -9.235 -31.002  0.00  0.00    +0.000 C 
ATOM     16  C   UNL     1     -45.342  -7.767 -31.380  0.00  0.00    +0.000 C 
BRANCH  16  17
ATOM     17  O   UNL     1     -45.445  -6.901 -30.248  0.00  0.00    +0.000 OA
BRANCH  17  18
ATOM     18  C   UNL     1     -46.596  -6.186 -29.891  0.00  0.00    +0.000 C 
ATOM     19  O   UNL     1     -47.501  -5.952 -30.737  0.00  0.00    +0.000 OA
BRANCH  18  20
ATOM     20  C   UNL     1     -46.740  -5.702 -28.515  0.00  0.00    +0.000 A 
ATOM     21  C   UNL     1     -46.394  -6.428 -27.368  0.00  0.00    +0.000 A 
ATOM     22  C   UNL     1     -46.658  -5.671 -26.228  0.00  0.00    +0.000 A 
ATOM     23  C   UNL     1     -47.169  -4.450 -26.453  0.00  0.00    +0.000 A 
ATOM     24  C   UNL     1     -47.438  -3.673 -25.235  0.00  0.00    +0.000 C 
ATOM     25  C   UNL     1     -46.990  -4.649 -24.126  0.00  0.00    +0.000 C 
ATOM     26  C   UNL     1     -46.484  -5.950 -24.792  0.00  0.00    +0.000 C 
ATOM     27  S   UNL     1     -47.352  -4.170 -28.093  0.00  0.00    +0.000 S 
ENDBRANCH  18  20
ENDBRANCH  17  18
ENDBRANCH  16  17
ENDBRANCH   1  16
TORSDOF 7
ENDMDL
MODEL 3
REMARK VINA RESULT:      -5.8      2.292      3.736
REMARK  Name = ZINC000003420494 ZINC03420494 PubChem-2539725
REMARK  7 active torsions:
REMARK  status: ('A' for Active; 'I' for Inactive)
REMARK    1  A    between atoms: C_2  and  C_3
REMARK    2  A    between atoms: C_2  and  O_23
REMARK    3  A    between atoms: C_4  and  N_25
REMARK    4  A    between atoms: C_6  and  N_26
REMARK    5  A    between atoms: C_9  and  O_20
REMARK    6  A    between atoms: C_11  and  C_12
REMARK    7  A    between atoms: C_11  and  O_23
REMARK                            x       y       z     vdW  Elec       q    Type
REMARK                         _______ _______ _______ _____ _____    ______ ____
ROOT
ATOM      1  C   UNL     1     -42.770 -18.422 -19.599  0.00  0.00    +0.000 C 
ATOM      2  O   UNL     1     -42.343 -17.569 -18.776  0.00  0.00    +0.000 OA
ATOM      3  N   UNL     1     -42.318 -18.355 -20.959  0.00  0.00    +0.000 NA
ENDROOT
BRANCH   3   4
ATOM      4  C   UNL     1     -42.861 -19.045 -22.095  0.00  0.00    +0.000 A 
ATOM      5  C   UNL     1     -43.956 -18.534 -22.807  0.00  0.00    +0.000 A 
ATOM      6  C   UNL     1     -44.462 -19.197 -23.931  0.00  0.00    +0.000 A 
ATOM      7  C   UNL     1     -43.853 -20.386 -24.352  0.00  0.00    +0.000 A 
ATOM      8  C   UNL     1     -42.756 -20.900 -23.659  0.00  0.00    +0.000 A 
ATOM      9  C   UNL     1     -42.250 -20.232 -22.531  0.00  0.00    +0.000 A 
BRANCH   6  12
ATOM     10  O   UNL     1     -46.312 -19.400 -25.333  0.00  0.00    +0.000 OA
ATOM     11  O   UNL     1     -45.869 -17.314 -24.571  0.00  0.00    +0.000 OA
ATOM     12  N   UNL     1     -45.584 -18.659 -24.642  0.00  0.00    +0.000 N 
ENDBRANCH   6  12
BRANCH   9  14
ATOM     13  C   UNL     1     -41.174 -21.972 -21.135  0.00  0.00    +0.000 C 
ATOM     14  O   UNL     1     -41.146 -20.733 -21.830  0.00  0.00    +0.000 OA
ENDBRANCH   9  14
ENDBRANCH   3   4
BRANCH   1  16
ATOM     15  C   UNL     1     -43.045 -20.500 -18.202  0.00  0.00    +0.000 C 
ATOM     16  C   UNL     1     -43.710 -19.496 -19.133  0.00  0.00    +0.000 C 
BRANCH  16  17
ATOM     17  O   UNL     1     -44.916 -18.960 -18.585  0.00  0.00    +0.000 OA
BRANCH  17  18
ATOM     18  C   UNL     1     -46.026 -18.558 -19.337  0.00  0.00    +0.000 C 
ATOM     19  O   UNL     1     -46.830 -19.407 -19.810  0.00  0.00    +0.000 OA
BRANCH  18  20
ATOM     20  C   UNL     1     -46.249 -17.130 -19.580  0.00  0.00    +0.000 A 
ATOM     21  C   UNL     1     -45.776 -16.423 -20.693  0.00  0.00    +0.000 A 
ATOM     22  C   UNL     1     -46.169 -15.087 -20.610  0.00  0.00    +0.000 A 
ATOM     23  C   UNL     1     -46.890 -14.766 -19.525  0.00  0.00    +0.000 A 
ATOM     24  C   UNL     1     -47.291 -13.354 -19.461  0.00  0.00    +0.000 C 
ATOM     25  C   UNL     1     -46.674 -12.786 -20.759  0.00  0.00    +0.000 C 
ATOM     26  C   UNL     1     -45.944 -13.933 -21.497  0.00  0.00    +0.000 C 
ATOM     27  S   UNL     1     -47.123 -16.101 -18.543  0.00  0.00    +0.000 S 
ENDBRANCH  18  20
ENDBRANCH  17  18
ENDBRANCH  16  17
ENDBRANCH   1  16
TORSDOF 7
ENDMDL
