MODEL 1
REMARK VINA RESULT:      -7.3      0.000      0.000
REMARK  Name = ZINC000020924363 ZINC20924363 PubChem-92705276
REMARK  4 active torsions:
REMARK  status: ('A' for Active; 'I' for Inactive)
REMARK    1  A    between atoms: C_5  and  C_8
REMARK    2  A    between atoms: C_12  and  C_13
REMARK    3  A    between atoms: C_16  and  O_24
REMARK    4  A    between atoms: C_17  and  O_23
REMARK                            x       y       z     vdW  Elec       q    Type
REMARK                         _______ _______ _______ _____ _____    ______ ____
ROOT
ATOM      1  C   UNL     1     -47.172  -4.018 -31.554  0.00  0.00    +0.000 C 
ATOM      2  C   UNL     1     -47.058  -5.373 -32.265  0.00  0.00    +0.000 C 
ATOM      3  C   UNL     1     -46.089  -6.268 -31.562  0.00  0.00    +0.000 C 
ATOM      4  C   UNL     1     -46.570  -5.090 -29.440  0.00  0.00    +0.000 C 
ATOM      5  C   UNL     1     -47.158  -4.133 -27.145  0.00  0.00    +0.000 C 
ATOM      6  O   UNL     1     -45.453  -7.142 -32.203  0.00  0.00    +0.000 OA
ATOM      7  O   UNL     1     -47.756  -3.134 -27.629  0.00  0.00    +0.000 OA
ATOM      8  N   UNL     1     -45.912  -6.142 -30.153  0.00  0.00    +0.000 NA
ATOM      9  N   UNL     1     -47.177  -4.139 -30.090  0.00  0.00    +0.000 NA
ATOM     10  N   UNL     1     -46.561  -5.112 -28.007  0.00  0.00    +0.000 NA
ENDROOT
BRANCH   1  15
ATOM     11  C   UNL     1     -43.097  -0.273 -33.249  0.00  0.00    +0.000 C 
ATOM     12  C   UNL     1     -44.143  -1.239 -32.821  0.00  0.00    +0.000 A 
ATOM     13  C   UNL     1     -44.610  -1.226 -31.503  0.00  0.00    +0.000 A 
ATOM     14  C   UNL     1     -45.593  -2.134 -31.100  0.00  0.00    +0.000 A 
ATOM     15  C   UNL     1     -46.112  -3.061 -32.011  0.00  0.00    +0.000 A 
ATOM     16  C   UNL     1     -45.643  -3.068 -33.334  0.00  0.00    +0.000 A 
ATOM     17  C   UNL     1     -44.661  -2.160 -33.737  0.00  0.00    +0.000 A 
ENDBRANCH   1  15
BRANCH   5  18
ATOM     18  C   UNL     1     -47.070  -4.295 -25.683  0.00  0.00    +0.000 A 
ATOM     19  C   UNL     1     -47.306  -3.209 -24.832  0.00  0.00    +0.000 A 
ATOM     20  C   UNL     1     -47.223  -3.365 -23.448  0.00  0.00    +0.000 A 
ATOM     21  C   UNL     1     -46.901  -4.614 -22.890  0.00  0.00    +0.000 A 
ATOM     22  C   UNL     1     -46.662  -5.708 -23.736  0.00  0.00    +0.000 A 
ATOM     23  C   UNL     1     -46.750  -5.540 -25.128  0.00  0.00    +0.000 A 
BRANCH  22  25
ATOM     24  C   UNL     1     -45.130  -7.632 -23.460  0.00  0.00    +0.000 C 
ATOM     25  O   UNL     1     -46.342  -6.948 -23.174  0.00  0.00    +0.000 OA
ENDBRANCH  22  25
BRANCH  21  27
ATOM     26  C   UNL     1     -45.636  -4.489 -20.766  0.00  0.00    +0.000 C 
ATOM     27  O   UNL     1     -46.812  -4.788 -21.505  0.00  0.00    +0.000 OA
ENDBRANCH  21  27
ENDBRANCH   5  18
TORSDOF 4
ENDMDL
MODEL 2
REMARK VINA RESULT:      -6.6      1.612      2.093
REMARK  Name = ZINC000020924363 ZINC20924363 PubChem-92705276
REMARK  4 active torsions:
REMARK  status: ('A' for Active; 'I' for Inactive)
REMARK    1  A    between atoms: C_5  and  C_8
REMARK    2  A    between atoms: C_12  and  C_13
REMARK    3  A    between atoms: C_16  and  O_24
REMARK    4  A    between atoms: C_17  and  O_23
REMARK                            x       y       z     vdW  Elec       q    Type
REMARK                         _______ _______ _______ _____ _____    ______ ____
ROOT
ATOM      1  C   UNL     1     -47.107  -4.817 -30.291  0.00  0.00    +0.000 C 
ATOM      2  C   UNL     1     -47.103  -6.328 -30.559  0.00  0.00    +0.000 C 
ATOM      3  C   UNL     1     -46.260  -7.048 -29.558  0.00  0.00    +0.000 C 
ATOM      4  C   UNL     1     -46.703  -5.249 -27.919  0.00  0.00    +0.000 C 
ATOM      5  C   UNL     1     -47.283  -3.598 -26.056  0.00  0.00    +0.000 C 
ATOM      6  O   UNL     1     -45.691  -8.126 -29.865  0.00  0.00    +0.000 OA
ATOM      7  O   UNL     1     -47.756  -2.744 -26.855  0.00  0.00    +0.000 OA
ATOM      8  N   UNL     1     -46.128  -6.518 -28.240  0.00  0.00    +0.000 NA
ATOM      9  N   UNL     1     -47.183  -4.490 -28.861  0.00  0.00    +0.000 NA
ATOM     10  N   UNL     1     -46.754  -4.838 -26.546  0.00  0.00    +0.000 NA
ENDROOT
BRANCH   1  15
ATOM     11  C   UNL     1     -42.548  -2.264 -32.780  0.00  0.00    +0.000 C 
ATOM     12  C   UNL     1     -43.722  -2.912 -32.141  0.00  0.00    +0.000 A 
ATOM     13  C   UNL     1     -43.822  -4.306 -32.110  0.00  0.00    +0.000 A 
ATOM     14  C   UNL     1     -44.926  -4.917 -31.508  0.00  0.00    +0.000 A 
ATOM     15  C   UNL     1     -45.938  -4.136 -30.937  0.00  0.00    +0.000 A 
ATOM     16  C   UNL     1     -45.833  -2.736 -30.967  0.00  0.00    +0.000 A 
ATOM     17  C   UNL     1     -44.729  -2.127 -31.568  0.00  0.00    +0.000 A 
ENDBRANCH   1  15
BRANCH   5  18
ATOM     18  C   UNL     1     -47.271  -3.319 -24.609  0.00  0.00    +0.000 A 
ATOM     19  C   UNL     1     -47.300  -2.000 -24.140  0.00  0.00    +0.000 A 
ATOM     20  C   UNL     1     -47.289  -1.738 -22.769  0.00  0.00    +0.000 A 
ATOM     21  C   UNL     1     -47.249  -2.794 -21.843  0.00  0.00    +0.000 A 
ATOM     22  C   UNL     1     -47.220  -4.118 -22.305  0.00  0.00    +0.000 A 
ATOM     23  C   UNL     1     -47.232  -4.371 -23.687  0.00  0.00    +0.000 A 
BRANCH  22  25
ATOM     24  C   UNL     1     -46.021  -5.959 -21.163  0.00  0.00    +0.000 C 
ATOM     25  O   UNL     1     -47.180  -5.164 -21.377  0.00  0.00    +0.000 OA
ENDBRANCH  22  25
BRANCH  21  27
ATOM     26  C   UNL     1     -46.063  -2.165 -19.762  0.00  0.00    +0.000 C 
ATOM     27  O   UNL     1     -47.237  -2.550 -20.465  0.00  0.00    +0.000 OA
ENDBRANCH  21  27
ENDBRANCH   5  18
TORSDOF 4
ENDMDL
MODEL 3
REMARK VINA RESULT:      -6.6      4.117      5.055
REMARK  Name = ZINC000020924363 ZINC20924363 PubChem-92705276
REMARK  4 active torsions:
REMARK  status: ('A' for Active; 'I' for Inactive)
REMARK    1  A    between atoms: C_5  and  C_8
REMARK    2  A    between atoms: C_12  and  C_13
REMARK    3  A    between atoms: C_16  and  O_24
REMARK    4  A    between atoms: C_17  and  O_23
REMARK                            x       y       z     vdW  Elec       q    Type
REMARK                         _______ _______ _______ _____ _____    ______ ____
ROOT
ATOM      1  C   UNL     1     -46.914  -4.470 -32.974  0.00  0.00    +0.000 C 
ATOM      2  C   UNL     1     -47.088  -4.946 -34.423  0.00  0.00    +0.000 C 
ATOM      3  C   UNL     1     -46.343  -6.219 -34.662  0.00  0.00    +0.000 C 
ATOM      4  C   UNL     1     -46.580  -6.787 -32.266  0.00  0.00    +0.000 C 
ATOM      5  C   UNL     1     -46.972  -7.611 -29.879  0.00  0.00    +0.000 C 
ATOM      6  O   UNL     1     -45.904  -6.492 -35.808  0.00  0.00    +0.000 OA
ATOM      7  O   UNL     1     -47.335  -6.477 -29.464  0.00  0.00    +0.000 OA
ATOM      8  N   UNL     1     -46.157  -7.137 -33.586  0.00  0.00    +0.000 NA
ATOM      9  N   UNL     1     -46.960  -5.570 -32.001  0.00  0.00    +0.000 NA
ATOM     10  N   UNL     1     -46.591  -7.797 -31.250  0.00  0.00    +0.000 NA
ENDROOT
BRANCH   1  15
ATOM     11  C   UNL     1     -42.083  -1.366 -32.249  0.00  0.00    +0.000 C 
ATOM     12  C   UNL     1     -43.326  -2.158 -32.441  0.00  0.00    +0.000 A 
ATOM     13  C   UNL     1     -43.472  -3.396 -31.808  0.00  0.00    +0.000 A 
ATOM     14  C   UNL     1     -44.641  -4.141 -31.988  0.00  0.00    +0.000 A 
ATOM     15  C   UNL     1     -45.667  -3.654 -32.805  0.00  0.00    +0.000 A 
ATOM     16  C   UNL     1     -45.518  -2.409 -33.436  0.00  0.00    +0.000 A 
ATOM     17  C   UNL     1     -44.350  -1.665 -33.255  0.00  0.00    +0.000 A 
ENDBRANCH   1  15
BRANCH   5  18
ATOM     18  C   UNL     1     -46.936  -8.754 -28.949  0.00  0.00    +0.000 A 
ATOM     19  C   UNL     1     -46.944  -8.543 -27.564  0.00  0.00    +0.000 A 
ATOM     20  C   UNL     1     -46.910  -9.627 -26.686  0.00  0.00    +0.000 A 
ATOM     21  C   UNL     1     -46.869 -10.942 -27.178  0.00  0.00    +0.000 A 
ATOM     22  C   UNL     1     -46.861 -11.162 -28.564  0.00  0.00    +0.000 A 
ATOM     23  C   UNL     1     -46.895 -10.064 -29.440  0.00  0.00    +0.000 A 
BRANCH  22  25
ATOM     24  C   UNL     1     -45.617 -13.098 -29.478  0.00  0.00    +0.000 C 
ATOM     25  O   UNL     1     -46.819 -12.474 -29.047  0.00  0.00    +0.000 OA
ENDBRANCH  22  25
BRANCH  21  27
ATOM     26  C   UNL     1     -45.694 -12.367 -25.529  0.00  0.00    +0.000 C 
ATOM     27  O   UNL     1     -46.834 -12.040 -26.311  0.00  0.00    +0.000 OA
ENDBRANCH  21  27
ENDBRANCH   5  18
TORSDOF 4
ENDMDL
