MODEL 1
REMARK VINA RESULT:      -6.2      0.000      0.000
REMARK  Name = ZINC000670444915
REMARK  7 active torsions:
REMARK  status: ('A' for Active; 'I' for Inactive)
REMARK    1  A    between atoms: N_1  and  C_18
REMARK    2  A    between atoms: C_2  and  C_5
REMARK    3  A    between atoms: N_9  and  C_11
REMARK    4  A    between atoms: C_11  and  C_12
REMARK    5  A    between atoms: C_18  and  C_19
REMARK    6  A    between atoms: C_19  and  C_25
REMARK    7  A    between atoms: C_27  and  O_28
REMARK                            x       y       z     vdW  Elec       q    Type
REMARK                         _______ _______ _______ _____ _____    ______ ____
ROOT
ATOM      1  N   UNL     1     -41.311 -20.940 -20.639  0.00  0.00    +0.000 N 
ATOM      2  C   UNL     1     -41.758 -21.243 -21.964  0.00  0.00    +0.000 C 
ATOM      3  O   UNL     1     -41.867 -22.441 -22.340  0.00  0.00    +0.000 OA
ATOM      4  H   UNL     1     -41.190 -19.999 -20.379  0.00  0.00    +0.000 HD
ENDROOT
BRANCH   2   5
ATOM      5  C   UNL     1     -42.142 -20.144 -22.898  0.00  0.00    +0.000 C 
ATOM      6  C   UNL     1     -42.787 -20.724 -24.163  0.00  0.00    +0.000 C 
ATOM      7  C   UNL     1     -44.107 -20.067 -24.198  0.00  0.00    +0.000 C 
ATOM      8  O   UNL     1     -44.977 -20.293 -25.079  0.00  0.00    +0.000 OA
ATOM      9  N   UNL     1     -44.306 -19.174 -23.123  0.00  0.00    +0.000 N 
ATOM     10  C   UNL     1     -43.162 -19.201 -22.237  0.00  0.00    +0.000 C 
BRANCH   9  11
ATOM     11  C   UNL     1     -45.547 -18.478 -22.820  0.00  0.00    +0.000 C 
BRANCH  11  12
ATOM     12  C   UNL     1     -45.513 -17.093 -23.369  0.00  0.00    +0.000 A 
ATOM     13  C   UNL     1     -45.156 -16.017 -22.550  0.00  0.00    +0.000 A 
ATOM     14  C   UNL     1     -45.109 -14.726 -23.079  0.00  0.00    +0.000 A 
ATOM     15  C   UNL     1     -45.412 -14.532 -24.428  0.00  0.00    +0.000 A 
ATOM     16  N   UNL     1     -45.750 -15.592 -25.212  0.00  0.00    +0.000 NA
ATOM     17  C   UNL     1     -45.804 -16.857 -24.714  0.00  0.00    +0.000 A 
ENDBRANCH  11  12
ENDBRANCH   9  11
ENDBRANCH   2   5
BRANCH   1  18
ATOM     18  C   UNL     1     -41.031 -21.985 -19.667  0.00  0.00    +0.000 C 
BRANCH  18  19
ATOM     19  C   UNL     1     -41.522 -21.562 -18.292  0.00  0.00    +0.000 C 
BRANCH  19  25
ATOM     20  C   UNL     1     -45.015 -14.813 -18.985  0.00  0.00    +0.000 C 
ATOM     21  C   UNL     1     -44.487 -16.198 -18.843  0.00  0.00    +0.000 A 
ATOM     22  S   UNL     1     -42.875 -16.566 -18.481  0.00  0.00    +0.000 S 
ATOM     23  C   UNL     1     -43.118 -18.224 -18.517  0.00  0.00    +0.000 A 
ATOM     24  N   UNL     1     -42.183 -19.183 -18.326  0.00  0.00    +0.000 NA
ATOM     25  C   UNL     1     -42.553 -20.491 -18.416  0.00  0.00    +0.000 A 
ATOM     26  N   UNL     1     -43.847 -20.823 -18.709  0.00  0.00    +0.000 NA
ATOM     27  C   UNL     1     -44.801 -19.868 -18.905  0.00  0.00    +0.000 A 
ATOM     28  C   UNL     1     -44.435 -18.522 -18.811  0.00  0.00    +0.000 A 
ATOM     29  C   UNL     1     -45.225 -17.375 -18.994  0.00  0.00    +0.000 A 
ATOM     30  C   UNL     1     -46.680 -17.393 -19.330  0.00  0.00    +0.000 C 
BRANCH  27  31
ATOM     31  O   UNL     1     -46.106 -20.246 -19.195  0.00  0.00    +0.000 OA
ATOM     32  H   UNL     1     -46.761 -20.217 -18.526  0.00  0.00    +0.000 HD
ENDBRANCH  27  31
ENDBRANCH  19  25
ENDBRANCH  18  19
ENDBRANCH   1  18
TORSDOF 7
ENDMDL
MODEL 2
REMARK VINA RESULT:      -5.6      1.594      2.106
REMARK  Name = ZINC000670444915
REMARK  7 active torsions:
REMARK  status: ('A' for Active; 'I' for Inactive)
REMARK    1  A    between atoms: N_1  and  C_18
REMARK    2  A    between atoms: C_2  and  C_5
REMARK    3  A    between atoms: N_9  and  C_11
REMARK    4  A    between atoms: C_11  and  C_12
REMARK    5  A    between atoms: C_18  and  C_19
REMARK    6  A    between atoms: C_19  and  C_25
REMARK    7  A    between atoms: C_27  and  O_28
REMARK                            x       y       z     vdW  Elec       q    Type
REMARK                         _______ _______ _______ _____ _____    ______ ____
ROOT
ATOM      1  N   UNL     1     -41.449 -20.845 -21.616  0.00  0.00    +0.000 N 
ATOM      2  C   UNL     1     -42.189 -21.055 -22.822  0.00  0.00    +0.000 C 
ATOM      3  O   UNL     1     -42.509 -22.221 -23.177  0.00  0.00    +0.000 OA
ATOM      4  H   UNL     1     -41.171 -19.931 -21.378  0.00  0.00    +0.000 HD
ENDROOT
BRANCH   2   5
ATOM      5  C   UNL     1     -42.627 -19.891 -23.648  0.00  0.00    +0.000 C 
ATOM      6  C   UNL     1     -43.475 -20.371 -24.833  0.00  0.00    +0.000 C 
ATOM      7  C   UNL     1     -44.743 -19.640 -24.657  0.00  0.00    +0.000 C 
ATOM      8  O   UNL     1     -45.737 -19.772 -25.416  0.00  0.00    +0.000 OA
ATOM      9  N   UNL     1     -44.736 -18.791 -23.529  0.00  0.00    +0.000 N 
ATOM     10  C   UNL     1     -43.486 -18.925 -22.813  0.00  0.00    +0.000 C 
BRANCH   9  11
ATOM     11  C   UNL     1     -45.878 -18.041 -23.028  0.00  0.00    +0.000 C 
BRANCH  11  12
ATOM     12  C   UNL     1     -45.775 -16.608 -23.427  0.00  0.00    +0.000 A 
ATOM     13  C   UNL     1     -46.018 -16.223 -24.748  0.00  0.00    +0.000 A 
ATOM     14  C   UNL     1     -45.938 -14.876 -25.106  0.00  0.00    +0.000 A 
ATOM     15  C   UNL     1     -45.623 -13.930 -24.128  0.00  0.00    +0.000 A 
ATOM     16  N   UNL     1     -45.397 -14.322 -22.845  0.00  0.00    +0.000 NA
ATOM     17  C   UNL     1     -45.468 -15.631 -22.478  0.00  0.00    +0.000 A 
ENDBRANCH  11  12
ENDBRANCH   9  11
ENDBRANCH   2   5
BRANCH   1  18
ATOM     18  C   UNL     1     -41.098 -21.944 -20.731  0.00  0.00    +0.000 C 
BRANCH  18  19
ATOM     19  C   UNL     1     -41.388 -21.564 -19.288  0.00  0.00    +0.000 C 
BRANCH  19  25
ATOM     20  C   UNL     1     -47.122 -16.535 -19.043  0.00  0.00    +0.000 C 
ATOM     21  C   UNL     1     -45.900 -17.384 -19.093  0.00  0.00    +0.000 A 
ATOM     22  S   UNL     1     -45.909 -19.042 -19.432  0.00  0.00    +0.000 S 
ATOM     23  C   UNL     1     -44.248 -19.206 -19.285  0.00  0.00    +0.000 A 
ATOM     24  N   UNL     1     -43.533 -20.347 -19.413  0.00  0.00    +0.000 NA
ATOM     25  C   UNL     1     -42.183 -20.303 -19.234  0.00  0.00    +0.000 A 
ATOM     26  N   UNL     1     -41.568 -19.123 -18.917  0.00  0.00    +0.000 NA
ATOM     27  C   UNL     1     -42.274 -17.964 -18.783  0.00  0.00    +0.000 A 
ATOM     28  C   UNL     1     -43.660 -17.996 -18.969  0.00  0.00    +0.000 A 
ATOM     29  C   UNL     1     -44.592 -16.949 -18.861  0.00  0.00    +0.000 A 
ATOM     30  C   UNL     1     -44.244 -15.537 -18.522  0.00  0.00    +0.000 C 
BRANCH  27  31
ATOM     31  O   UNL     1     -41.612 -16.785 -18.466  0.00  0.00    +0.000 OA
ATOM     32  H   UNL     1     -41.455 -16.143 -19.130  0.00  0.00    +0.000 HD
ENDBRANCH  27  31
ENDBRANCH  19  25
ENDBRANCH  18  19
ENDBRANCH   1  18
TORSDOF 7
ENDMDL
MODEL 3
REMARK VINA RESULT:      -5.6     13.609     17.604
REMARK  Name = ZINC000670444915
REMARK  7 active torsions:
REMARK  status: ('A' for Active; 'I' for Inactive)
REMARK    1  A    between atoms: N_1  and  C_18
REMARK    2  A    between atoms: C_2  and  C_5
REMARK    3  A    between atoms: N_9  and  C_11
REMARK    4  A    between atoms: C_11  and  C_12
REMARK    5  A    between atoms: C_18  and  C_19
REMARK    6  A    between atoms: C_19  and  C_25
REMARK    7  A    between atoms: C_27  and  O_28
REMARK                            x       y       z     vdW  Elec       q    Type
REMARK                         _______ _______ _______ _____ _____    ______ ____
ROOT
ATOM      1  N   UNL     1     -46.730  -7.101 -33.397  0.00  0.00    +0.000 N 
ATOM      2  C   UNL     1     -46.970  -8.340 -32.724  0.00  0.00    +0.000 C 
ATOM      3  O   UNL     1     -46.498  -9.415 -33.182  0.00  0.00    +0.000 OA
ATOM      4  H   UNL     1     -47.144  -6.279 -33.048  0.00  0.00    +0.000 HD
ENDROOT
BRANCH   2   5
ATOM      5  C   UNL     1     -47.746  -8.366 -31.449  0.00  0.00    +0.000 C 
ATOM      6  C   UNL     1     -47.294  -9.545 -30.577  0.00  0.00    +0.000 C 
ATOM      7  C   UNL     1     -46.878  -8.893 -29.322  0.00  0.00    +0.000 C 
ATOM      8  O   UNL     1     -46.406  -9.515 -28.335  0.00  0.00    +0.000 OA
ATOM      9  N   UNL     1     -47.039  -7.491 -29.349  0.00  0.00    +0.000 N 
ATOM     10  C   UNL     1     -47.519  -7.071 -30.649  0.00  0.00    +0.000 C 
BRANCH   9  11
ATOM     11  C   UNL     1     -46.602  -6.568 -28.312  0.00  0.00    +0.000 C 
BRANCH  11  12
ATOM     12  C   UNL     1     -45.114  -6.536 -28.238  0.00  0.00    +0.000 A 
ATOM     13  C   UNL     1     -44.361  -6.094 -29.329  0.00  0.00    +0.000 A 
ATOM     14  C   UNL     1     -42.969  -6.049 -29.242  0.00  0.00    +0.000 A 
ATOM     15  C   UNL     1     -42.349  -6.441 -28.054  0.00  0.00    +0.000 A 
ATOM     16  N   UNL     1     -43.098  -6.862 -26.999  0.00  0.00    +0.000 NA
ATOM     17  C   UNL     1     -44.456  -6.915 -27.066  0.00  0.00    +0.000 A 
ENDBRANCH  11  12
ENDBRANCH   9  11
ENDBRANCH   2   5
BRANCH   1  18
ATOM     18  C   UNL     1     -45.890  -7.022 -34.582  0.00  0.00    +0.000 C 
BRANCH  18  19
ATOM     19  C   UNL     1     -44.433  -6.860 -34.177  0.00  0.00    +0.000 C 
BRANCH  19  25
ATOM     20  C   UNL     1     -41.071  -0.263 -32.333  0.00  0.00    +0.000 C 
ATOM     21  C   UNL     1     -41.869  -1.482 -32.636  0.00  0.00    +0.000 A 
ATOM     22  S   UNL     1     -41.196  -2.989 -33.011  0.00  0.00    +0.000 S 
ATOM     23  C   UNL     1     -42.681  -3.740 -33.211  0.00  0.00    +0.000 A 
ATOM     24  N   UNL     1     -42.895  -5.028 -33.564  0.00  0.00    +0.000 NA
ATOM     25  C   UNL     1     -44.177  -5.467 -33.707  0.00  0.00    +0.000 A 
ATOM     26  N   UNL     1     -45.225  -4.612 -33.509  0.00  0.00    +0.000 NA
ATOM     27  C   UNL     1     -45.026  -3.310 -33.154  0.00  0.00    +0.000 A 
ATOM     28  C   UNL     1     -43.716  -2.849 -32.999  0.00  0.00    +0.000 A 
ATOM     29  C   UNL     1     -43.264  -1.560 -32.667  0.00  0.00    +0.000 A 
ATOM     30  C   UNL     1     -44.157  -0.395 -32.393  0.00  0.00    +0.000 C 
BRANCH  27  31
ATOM     31  O   UNL     1     -46.118  -2.475 -32.956  0.00  0.00    +0.000 OA
ATOM     32  H   UNL     1     -46.488  -2.008 -33.680  0.00  0.00    +0.000 HD
ENDBRANCH  27  31
ENDBRANCH  19  25
ENDBRANCH  18  19
ENDBRANCH   1  18
TORSDOF 7
ENDMDL
