MODEL 1
REMARK VINA RESULT:      -6.0      0.000      0.000
REMARK  Name = ZINC000096181229
REMARK  4 active torsions:
REMARK  status: ('A' for Active; 'I' for Inactive)
REMARK    1  A    between atoms: C_3  and  C_4
REMARK    2  A    between atoms: C_4  and  N_20
REMARK    3  A    between atoms: C_5  and  C_6
REMARK    4  A    between atoms: C_10  and  C_11
REMARK                            x       y       z     vdW  Elec       q    Type
REMARK                         _______ _______ _______ _____ _____    ______ ____
ROOT
ATOM      1  C   UNL     1     -46.792  -4.929 -30.531  0.00  0.00    +0.000 C 
ATOM      2  C   UNL     1     -47.472  -4.499 -29.224  0.00  0.00    +0.000 C 
ATOM      3  C   UNL     1     -46.659  -5.165 -28.188  0.00  0.00    +0.000 C 
ATOM      4  C   UNL     1     -44.499  -6.467 -27.931  0.00  0.00    +0.000 C 
ATOM      5  C   UNL     1     -45.552  -5.765 -30.162  0.00  0.00    +0.000 C 
ATOM      6  N   UNL     1     -45.588  -5.914 -28.720  0.00  0.00    +0.000 N 
ATOM      7  O   UNL     1     -46.882  -5.066 -26.952  0.00  0.00    +0.000 OA
ENDROOT
BRANCH   5   8
ATOM      8  C   UNL     1     -45.579  -7.098 -30.846  0.00  0.00    +0.000 A 
ATOM      9  C   UNL     1     -46.785  -7.802 -30.917  0.00  0.00    +0.000 A 
ATOM     10  C   UNL     1     -46.834  -9.049 -31.549  0.00  0.00    +0.000 A 
ATOM     11  C   UNL     1     -45.677  -9.594 -32.113  0.00  0.00    +0.000 A 
ATOM     12  C   UNL     1     -45.730 -10.919 -32.784  0.00  0.00    +0.000 C 
ATOM     13  C   UNL     1     -44.468  -8.894 -32.043  0.00  0.00    +0.000 A 
ATOM     14  C   UNL     1     -44.419  -7.648 -31.412  0.00  0.00    +0.000 A 
ENDBRANCH   5   8
BRANCH   1  15
ATOM     15  C   UNL     1     -46.401  -3.736 -31.339  0.00  0.00    +0.000 C 
ATOM     16  N   UNL     1     -45.984  -3.894 -32.697  0.00  0.00    +0.000 NA
ATOM     17  O   UNL     1     -46.444  -2.593 -30.812  0.00  0.00    +0.000 OA
BRANCH  16  18
ATOM     18  C   UNL     1     -45.611  -2.759 -33.526  0.00  0.00    +0.000 C 
BRANCH  18  21
ATOM     19  C   UNL     1     -44.273  -0.257 -32.100  0.00  0.00    +0.000 C 
ATOM     20  C   UNL     1     -43.571  -1.391 -32.769  0.00  0.00    +0.000 A 
ATOM     21  C   UNL     1     -44.156  -2.483 -33.368  0.00  0.00    +0.000 A 
ATOM     22  C   UNL     1     -43.115  -3.240 -33.877  0.00  0.00    +0.000 A 
ATOM     23  C   UNL     1     -41.235  -0.577 -32.422  0.00  0.00    +0.000 C 
ATOM     24  N   UNL     1     -41.955  -2.617 -33.570  0.00  0.00    +0.000 NA
ATOM     25  N   UNL     1     -42.240  -1.509 -32.906  0.00  0.00    +0.000 N 
ENDBRANCH  18  21
ENDBRANCH  16  18
ENDBRANCH   1  15
TORSDOF 4
ENDMDL
MODEL 2
REMARK VINA RESULT:      -6.0     13.391     16.696
REMARK  Name = ZINC000096181229
REMARK  4 active torsions:
REMARK  status: ('A' for Active; 'I' for Inactive)
REMARK    1  A    between atoms: C_3  and  C_4
REMARK    2  A    between atoms: C_4  and  N_20
REMARK    3  A    between atoms: C_5  and  C_6
REMARK    4  A    between atoms: C_10  and  C_11
REMARK                            x       y       z     vdW  Elec       q    Type
REMARK                         _______ _______ _______ _____ _____    ______ ____
ROOT
ATOM      1  C   UNL     1     -43.624 -18.614 -21.092  0.00  0.00    +0.000 C 
ATOM      2  C   UNL     1     -42.377 -19.435 -20.735  0.00  0.00    +0.000 C 
ATOM      3  C   UNL     1     -42.757 -20.089 -19.467  0.00  0.00    +0.000 C 
ATOM      4  C   UNL     1     -44.777 -20.450 -17.980  0.00  0.00    +0.000 C 
ATOM      5  C   UNL     1     -44.702 -18.915 -20.034  0.00  0.00    +0.000 C 
ATOM      6  N   UNL     1     -44.065 -19.768 -19.049  0.00  0.00    +0.000 N 
ATOM      7  O   UNL     1     -42.001 -20.869 -18.828  0.00  0.00    +0.000 OA
ENDROOT
BRANCH   5   8
ATOM      8  C   UNL     1     -45.211 -17.652 -19.411  0.00  0.00    +0.000 A 
ATOM      9  C   UNL     1     -44.295 -16.689 -18.976  0.00  0.00    +0.000 A 
ATOM     10  C   UNL     1     -44.747 -15.503 -18.390  0.00  0.00    +0.000 A 
ATOM     11  C   UNL     1     -46.117 -15.276 -18.237  0.00  0.00    +0.000 A 
ATOM     12  C   UNL     1     -46.596 -14.014 -17.614  0.00  0.00    +0.000 C 
ATOM     13  C   UNL     1     -47.038 -16.235 -18.669  0.00  0.00    +0.000 A 
ATOM     14  C   UNL     1     -46.587 -17.421 -19.255  0.00  0.00    +0.000 A 
ENDBRANCH   5   8
BRANCH   1  15
ATOM     15  C   UNL     1     -44.114 -18.967 -22.457  0.00  0.00    +0.000 C 
ATOM     16  N   UNL     1     -45.257 -18.306 -23.003  0.00  0.00    +0.000 NA
ATOM     17  O   UNL     1     -43.507 -19.849 -23.122  0.00  0.00    +0.000 OA
BRANCH  16  18
ATOM     18  C   UNL     1     -45.759 -18.606 -24.335  0.00  0.00    +0.000 C 
BRANCH  18  21
ATOM     19  C   UNL     1     -46.463 -15.549 -24.828  0.00  0.00    +0.000 C 
ATOM     20  C   UNL     1     -45.448 -16.366 -25.555  0.00  0.00    +0.000 A 
ATOM     21  C   UNL     1     -45.132 -17.685 -25.323  0.00  0.00    +0.000 A 
ATOM     22  C   UNL     1     -44.168 -18.016 -26.260  0.00  0.00    +0.000 A 
ATOM     23  C   UNL     1     -44.694 -14.600 -27.153  0.00  0.00    +0.000 C 
ATOM     24  N   UNL     1     -43.915 -16.917 -27.006  0.00  0.00    +0.000 NA
ATOM     25  N   UNL     1     -44.688 -15.933 -26.575  0.00  0.00    +0.000 N 
ENDBRANCH  18  21
ENDBRANCH  16  18
ENDBRANCH   1  15
TORSDOF 4
ENDMDL
MODEL 3
REMARK VINA RESULT:      -5.9     11.032     15.004
REMARK  Name = ZINC000096181229
REMARK  4 active torsions:
REMARK  status: ('A' for Active; 'I' for Inactive)
REMARK    1  A    between atoms: C_3  and  C_4
REMARK    2  A    between atoms: C_4  and  N_20
REMARK    3  A    between atoms: C_5  and  C_6
REMARK    4  A    between atoms: C_10  and  C_11
REMARK                            x       y       z     vdW  Elec       q    Type
REMARK                         _______ _______ _______ _____ _____    ______ ____
ROOT
ATOM      1  C   UNL     1     -43.925 -17.140 -26.580  0.00  0.00    +0.000 C 
ATOM      2  C   UNL     1     -42.448 -17.553 -26.652  0.00  0.00    +0.000 C 
ATOM      3  C   UNL     1     -41.736 -16.323 -26.252  0.00  0.00    +0.000 C 
ATOM      4  C   UNL     1     -42.191 -14.020 -25.297  0.00  0.00    +0.000 C 
ATOM      5  C   UNL     1     -43.982 -15.695 -26.050  0.00  0.00    +0.000 C 
ATOM      6  N   UNL     1     -42.604 -15.255 -25.943  0.00  0.00    +0.000 N 
ATOM      7  O   UNL     1     -40.481 -16.235 -26.176  0.00  0.00    +0.000 OA
ENDROOT
BRANCH   5   8
ATOM      8  C   UNL     1     -44.762 -14.813 -26.977  0.00  0.00    +0.000 A 
ATOM      9  C   UNL     1     -45.814 -14.047 -26.465  0.00  0.00    +0.000 A 
ATOM     10  C   UNL     1     -46.557 -13.219 -27.312  0.00  0.00    +0.000 A 
ATOM     11  C   UNL     1     -46.249 -13.154 -28.674  0.00  0.00    +0.000 A 
ATOM     12  C   UNL     1     -47.040 -12.273 -29.573  0.00  0.00    +0.000 C 
ATOM     13  C   UNL     1     -45.200 -13.918 -29.191  0.00  0.00    +0.000 A 
ATOM     14  C   UNL     1     -44.457 -14.746 -28.346  0.00  0.00    +0.000 A 
ENDBRANCH   5   8
BRANCH   1  15
ATOM     15  C   UNL     1     -44.686 -18.059 -25.683  0.00  0.00    +0.000 C 
ATOM     16  N   UNL     1     -44.839 -17.747 -24.297  0.00  0.00    +0.000 NA
ATOM     17  O   UNL     1     -45.192 -19.109 -26.161  0.00  0.00    +0.000 OA
BRANCH  16  18
ATOM     18  C   UNL     1     -45.586 -18.603 -23.391  0.00  0.00    +0.000 C 
BRANCH  18  21
ATOM     19  C   UNL     1     -46.071 -18.220 -20.276  0.00  0.00    +0.000 C 
ATOM     20  C   UNL     1     -44.895 -18.865 -20.929  0.00  0.00    +0.000 A 
ATOM     21  C   UNL     1     -44.700 -19.047 -22.279  0.00  0.00    +0.000 A 
ATOM     22  C   UNL     1     -43.461 -19.651 -22.406  0.00  0.00    +0.000 A 
ATOM     23  C   UNL     1     -43.608 -19.374 -18.850  0.00  0.00    +0.000 C 
ATOM     24  N   UNL     1     -42.956 -19.833 -21.165  0.00  0.00    +0.000 NA
ATOM     25  N   UNL     1     -43.824 -19.358 -20.286  0.00  0.00    +0.000 N 
ENDBRANCH  18  21
ENDBRANCH  16  18
ENDBRANCH   1  15
TORSDOF 4
ENDMDL
