MODEL 1
REMARK VINA RESULT:      -5.6      0.000      0.000
REMARK  Name = ZINC000007171592 ZINC07171592 PubChem-8287314
REMARK  5 active torsions:
REMARK  status: ('A' for Active; 'I' for Inactive)
REMARK    1  A    between atoms: C_2  and  C_3
REMARK    2  A    between atoms: C_2  and  S_17
REMARK    3  A    between atoms: S_17  and  C_18
REMARK    4  A    between atoms: C_21  and  C_29
REMARK    5  A    between atoms: N_22  and  C_23
REMARK                            x       y       z     vdW  Elec       q    Type
REMARK                         _______ _______ _______ _____ _____    ______ ____
ROOT
ATOM      1  C   UNL     1     -40.555 -17.377 -19.754  0.00  0.00    +0.000 C 
ATOM      2  C   UNL     1     -41.849 -17.152 -20.521  0.00  0.00    +0.000 C 
ENDROOT
BRANCH   2   3
ATOM      3  C   UNL     1     -42.908 -16.482 -19.686  0.00  0.00    +0.000 C 
ATOM      4  O   UNL     1     -42.600 -15.500 -18.956  0.00  0.00    +0.000 OA
ATOM      5  N   UNL     1     -44.264 -16.974 -19.701  0.00  0.00    +0.000 N 
ATOM      6  C   UNL     1     -44.506 -18.342 -20.179  0.00  0.00    +0.000 C 
ATOM      7  C   UNL     1     -45.662 -18.979 -19.470  0.00  0.00    +0.000 C 
ATOM      8  O   UNL     1     -45.733 -20.232 -19.387  0.00  0.00    +0.000 OA
ATOM      9  N   UNL     1     -46.718 -18.169 -18.955  0.00  0.00    +0.000 N 
ATOM     10  C   UNL     1     -46.603 -16.747 -18.954  0.00  0.00    +0.000 A 
ATOM     11  C   UNL     1     -45.386 -16.142 -19.323  0.00  0.00    +0.000 A 
ATOM     12  C   UNL     1     -45.295 -14.740 -19.324  0.00  0.00    +0.000 A 
ATOM     13  C   UNL     1     -46.391 -13.958 -18.950  0.00  0.00    +0.000 A 
ATOM     14  C   UNL     1     -47.590 -14.568 -18.572  0.00  0.00    +0.000 A 
ATOM     15  C   UNL     1     -47.696 -15.962 -18.574  0.00  0.00    +0.000 A 
ATOM     16  H   UNL     1     -47.531 -18.594 -18.597  0.00  0.00    +0.000 HD
ENDBRANCH   2   3
BRANCH   2  17
ATOM     17  S   UNL     1     -41.514 -16.160 -22.007  0.00  0.00    +0.000 S 
BRANCH  17  18
ATOM     18  C   UNL     1     -42.319 -17.350 -23.082  0.00  0.00    +0.000 A 
ATOM     19  N   UNL     1     -41.848 -18.597 -23.264  0.00  0.00    +0.000 NA
ATOM     20  N   UNL     1     -42.641 -19.184 -24.147  0.00  0.00    +0.000 NA
ATOM     21  C   UNL     1     -43.578 -18.280 -24.504  0.00  0.00    +0.000 A 
ATOM     22  N   UNL     1     -43.412 -17.113 -23.841  0.00  0.00    +0.000 N 
BRANCH  22  23
ATOM     23  C   UNL     1     -44.221 -15.921 -23.904  0.00  0.00    +0.000 A 
ATOM     24  C   UNL     1     -44.003 -14.963 -24.906  0.00  0.00    +0.000 A 
ATOM     25  C   UNL     1     -44.789 -13.808 -24.969  0.00  0.00    +0.000 A 
ATOM     26  C   UNL     1     -45.800 -13.599 -24.029  0.00  0.00    +0.000 A 
ATOM     27  C   UNL     1     -46.024 -14.545 -23.024  0.00  0.00    +0.000 A 
ATOM     28  C   UNL     1     -45.239 -15.698 -22.963  0.00  0.00    +0.000 A 
ENDBRANCH  22  23
BRANCH  21  29
ATOM     29  C   UNL     1     -44.715 -18.584 -25.435  0.00  0.00    +0.000 C 
ATOM     30  C   UNL     1     -45.962 -18.992 -24.668  0.00  0.00    +0.000 C 
ATOM     31  C   UNL     1     -45.091 -20.049 -25.305  0.00  0.00    +0.000 C 
ENDBRANCH  21  29
ENDBRANCH  17  18
ENDBRANCH   2  17
TORSDOF 5
ENDMDL
MODEL 2
REMARK VINA RESULT:      -5.6     11.212     14.703
REMARK  Name = ZINC000007171592 ZINC07171592 PubChem-8287314
REMARK  5 active torsions:
REMARK  status: ('A' for Active; 'I' for Inactive)
REMARK    1  A    between atoms: C_2  and  C_3
REMARK    2  A    between atoms: C_2  and  S_17
REMARK    3  A    between atoms: S_17  and  C_18
REMARK    4  A    between atoms: C_21  and  C_29
REMARK    5  A    between atoms: N_22  and  C_23
REMARK                            x       y       z     vdW  Elec       q    Type
REMARK                         _______ _______ _______ _____ _____    ______ ____
ROOT
ATOM      1  C   UNL     1     -46.136  -5.564 -28.256  0.00  0.00    +0.000 C 
ATOM      2  C   UNL     1     -46.050  -6.495 -29.457  0.00  0.00    +0.000 C 
ENDROOT
BRANCH   2   3
ATOM      3  C   UNL     1     -46.061  -7.948 -29.064  0.00  0.00    +0.000 C 
ATOM      4  O   UNL     1     -46.844  -8.345 -28.157  0.00  0.00    +0.000 OA
ATOM      5  N   UNL     1     -45.166  -8.881 -29.704  0.00  0.00    +0.000 N 
ATOM      6  C   UNL     1     -43.988  -8.350 -30.403  0.00  0.00    +0.000 C 
ATOM      7  C   UNL     1     -42.828  -9.293 -30.327  0.00  0.00    +0.000 C 
ATOM      8  O   UNL     1     -41.654  -8.854 -30.436  0.00  0.00    +0.000 OA
ATOM      9  N   UNL     1     -43.054 -10.697 -30.203  0.00  0.00    +0.000 N 
ATOM     10  C   UNL     1     -44.371 -11.198 -29.979  0.00  0.00    +0.000 A 
ATOM     11  C   UNL     1     -45.429 -10.303 -29.729  0.00  0.00    +0.000 A 
ATOM     12  C   UNL     1     -46.720 -10.816 -29.519  0.00  0.00    +0.000 A 
ATOM     13  C   UNL     1     -46.948 -12.194 -29.544  0.00  0.00    +0.000 A 
ATOM     14  C   UNL     1     -45.889 -13.075 -29.779  0.00  0.00    +0.000 A 
ATOM     15  C   UNL     1     -44.602 -12.577 -29.996  0.00  0.00    +0.000 A 
ATOM     16  H   UNL     1     -42.298 -11.323 -30.273  0.00  0.00    +0.000 HD
ENDBRANCH   2   3
BRANCH   2  17
ATOM     17  S   UNL     1     -47.425  -6.151 -30.596  0.00  0.00    +0.000 S 
BRANCH  17  18
ATOM     18  C   UNL     1     -46.723  -4.579 -31.098  0.00  0.00    +0.000 A 
ATOM     19  N   UNL     1     -46.884  -3.450 -30.382  0.00  0.00    +0.000 NA
ATOM     20  N   UNL     1     -46.289  -2.478 -31.054  0.00  0.00    +0.000 NA
ATOM     21  C   UNL     1     -45.787  -3.023 -32.182  0.00  0.00    +0.000 A 
ATOM     22  N   UNL     1     -46.031  -4.353 -32.236  0.00  0.00    +0.000 N 
BRANCH  22  23
ATOM     23  C   UNL     1     -45.626  -5.300 -33.245  0.00  0.00    +0.000 A 
ATOM     24  C   UNL     1     -46.487  -5.630 -34.302  0.00  0.00    +0.000 A 
ATOM     25  C   UNL     1     -46.094  -6.547 -35.281  0.00  0.00    +0.000 A 
ATOM     26  C   UNL     1     -44.834  -7.145 -35.211  0.00  0.00    +0.000 A 
ATOM     27  C   UNL     1     -43.969  -6.827 -34.161  0.00  0.00    +0.000 A 
ATOM     28  C   UNL     1     -44.363  -5.910 -33.184  0.00  0.00    +0.000 A 
ENDBRANCH  22  23
BRANCH  21  29
ATOM     29  C   UNL     1     -44.967  -2.260 -33.182  0.00  0.00    +0.000 C 
ATOM     30  C   UNL     1     -43.503  -2.220 -32.780  0.00  0.00    +0.000 C 
ATOM     31  C   UNL     1     -44.387  -1.025 -32.516  0.00  0.00    +0.000 C 
ENDBRANCH  21  29
ENDBRANCH  17  18
ENDBRANCH   2  17
TORSDOF 5
ENDMDL
MODEL 3
REMARK VINA RESULT:      -5.6     11.657     15.453
REMARK  Name = ZINC000007171592 ZINC07171592 PubChem-8287314
REMARK  5 active torsions:
REMARK  status: ('A' for Active; 'I' for Inactive)
REMARK    1  A    between atoms: C_2  and  C_3
REMARK    2  A    between atoms: C_2  and  S_17
REMARK    3  A    between atoms: S_17  and  C_18
REMARK    4  A    between atoms: C_21  and  C_29
REMARK    5  A    between atoms: N_22  and  C_23
REMARK                            x       y       z     vdW  Elec       q    Type
REMARK                         _______ _______ _______ _____ _____    ______ ____
ROOT
ATOM      1  C   UNL     1     -45.157  -7.696 -32.800  0.00  0.00    +0.000 C 
ATOM      2  C   UNL     1     -45.400  -6.552 -31.827  0.00  0.00    +0.000 C 
ENDROOT
BRANCH   2   3
ATOM      3  C   UNL     1     -45.043  -5.210 -32.411  0.00  0.00    +0.000 C 
ATOM      4  O   UNL     1     -45.838  -4.645 -33.212  0.00  0.00    +0.000 OA
ATOM      5  N   UNL     1     -43.788  -4.582 -32.075  0.00  0.00    +0.000 N 
ATOM      6  C   UNL     1     -42.714  -5.419 -31.527  0.00  0.00    +0.000 C 
ATOM      7  C   UNL     1     -41.362  -4.922 -31.938  0.00  0.00    +0.000 C 
ATOM      8  O   UNL     1     -40.387  -5.716 -31.976  0.00  0.00    +0.000 OA
ATOM      9  N   UNL     1     -41.163  -3.536 -32.214  0.00  0.00    +0.000 N 
ATOM     10  C   UNL     1     -42.276  -2.645 -32.271  0.00  0.00    +0.000 A 
ATOM     11  C   UNL     1     -43.587  -3.155 -32.203  0.00  0.00    +0.000 A 
ATOM     12  C   UNL     1     -44.669  -2.261 -32.252  0.00  0.00    +0.000 A 
ATOM     13  C   UNL     1     -44.449  -0.887 -32.381  0.00  0.00    +0.000 A 
ATOM     14  C   UNL     1     -43.144  -0.392 -32.461  0.00  0.00    +0.000 A 
ATOM     15  C   UNL     1     -42.059  -1.270 -32.406  0.00  0.00    +0.000 A 
ATOM     16  H   UNL     1     -40.253  -3.193 -32.367  0.00  0.00    +0.000 HD
ENDBRANCH   2   3
BRANCH   2  17
ATOM     17  S   UNL     1     -47.141  -6.554 -31.302  0.00  0.00    +0.000 S 
BRANCH  17  18
ATOM     18  C   UNL     1     -46.707  -6.279 -29.584  0.00  0.00    +0.000 A 
ATOM     19  N   UNL     1     -46.831  -5.078 -28.987  0.00  0.00    +0.000 NA
ATOM     20  N   UNL     1     -46.380  -5.213 -27.750  0.00  0.00    +0.000 NA
ATOM     21  C   UNL     1     -45.971  -6.492 -27.613  0.00  0.00    +0.000 A 
ATOM     22  N   UNL     1     -46.175  -7.198 -28.749  0.00  0.00    +0.000 N 
BRANCH  22  23
ATOM     23  C   UNL     1     -45.917  -8.595 -28.996  0.00  0.00    +0.000 A 
ATOM     24  C   UNL     1     -46.960  -9.533 -28.952  0.00  0.00    +0.000 A 
ATOM     25  C   UNL     1     -46.711 -10.886 -29.194  0.00  0.00    +0.000 A 
ATOM     26  C   UNL     1     -45.414 -11.317 -29.479  0.00  0.00    +0.000 A 
ATOM     27  C   UNL     1     -44.366 -10.394 -29.522  0.00  0.00    +0.000 A 
ATOM     28  C   UNL     1     -44.617  -9.041 -29.282  0.00  0.00    +0.000 A 
ENDBRANCH  22  23
BRANCH  21  29
ATOM     29  C   UNL     1     -45.462  -7.068 -26.323  0.00  0.00    +0.000 C 
ATOM     30  C   UNL     1     -46.581  -7.724 -25.532  0.00  0.00    +0.000 C 
ATOM     31  C   UNL     1     -46.107  -6.340 -25.159  0.00  0.00    +0.000 C 
ENDBRANCH  21  29
ENDBRANCH  17  18
ENDBRANCH   2  17
TORSDOF 5
ENDMDL
