MODEL 1
REMARK VINA RESULT:      -6.3      0.000      0.000
REMARK  Name = ZINC000036054391 ZINC36054391 PubChem-93152296
REMARK  8 active torsions:
REMARK  status: ('A' for Active; 'I' for Inactive)
REMARK    1  A    between atoms: C_2  and  C_4
REMARK    2  A    between atoms: C_4  and  C_5
REMARK    3  A    between atoms: C_7  and  C_18
REMARK    4  A    between atoms: C_8  and  C_10
REMARK    5  A    between atoms: C_11  and  C_12
REMARK    6  A    between atoms: C_11  and  N_31
REMARK    7  A    between atoms: C_22  and  O_29
REMARK    8  A    between atoms: C_23  and  O_28
REMARK                            x       y       z     vdW  Elec       q    Type
REMARK                         _______ _______ _______ _____ _____    ______ ____
ROOT
ATOM      1  C   UNL     1     -41.074 -18.741 -26.346  0.00  0.00    +0.000 C 
ATOM      2  C   UNL     1     -42.554 -16.712 -26.047  0.00  0.00    +0.000 C 
ATOM      3  C   UNL     1     -44.044 -16.527 -25.819  0.00  0.00    +0.000 C 
ATOM      4  C   UNL     1     -44.718 -17.878 -26.062  0.00  0.00    +0.000 C 
ATOM      5  C   UNL     1     -43.605 -18.888 -26.288  0.00  0.00    +0.000 C 
ATOM      6  O   UNL     1     -40.037 -18.026 -26.320  0.00  0.00    +0.000 OA
ATOM      7  N   UNL     1     -42.368 -18.132 -26.265  0.00  0.00    +0.000 N 
ENDROOT
BRANCH   3   8
ATOM      8  C   UNL     1     -44.620 -15.442 -26.685  0.00  0.00    +0.000 A 
ATOM      9  C   UNL     1     -44.100 -15.312 -27.974  0.00  0.00    +0.000 A 
ATOM     10  C   UNL     1     -44.579 -14.329 -28.835  0.00  0.00    +0.000 A 
ATOM     11  C   UNL     1     -45.586 -13.466 -28.411  0.00  0.00    +0.000 A 
ATOM     12  C   UNL     1     -46.131 -13.571 -27.122  0.00  0.00    +0.000 A 
ATOM     13  C   UNL     1     -45.644 -14.572 -26.239  0.00  0.00    +0.000 A 
BRANCH  13  15
ATOM     14  C   UNL     1     -45.783 -13.945 -23.812  0.00  0.00    +0.000 C 
ATOM     15  O   UNL     1     -46.136 -14.744 -24.932  0.00  0.00    +0.000 OA
ENDBRANCH  13  15
BRANCH  12  17
ATOM     16  C   UNL     1     -46.982 -11.280 -26.701  0.00  0.00    +0.000 C 
ATOM     17  O   UNL     1     -47.142 -12.693 -26.717  0.00  0.00    +0.000 OA
ENDBRANCH  12  17
ENDBRANCH   3   8
BRANCH   4  18
ATOM     18  C   UNL     1     -45.539 -18.270 -24.880  0.00  0.00    +0.000 C 
ATOM     19  O   UNL     1     -46.631 -18.872 -25.058  0.00  0.00    +0.000 OA
ATOM     20  N   UNL     1     -45.084 -17.970 -23.559  0.00  0.00    +0.000 NA
BRANCH  20  21
ATOM     21  C   UNL     1     -45.832 -18.352 -22.374  0.00  0.00    +0.000 C 
BRANCH  21  22
ATOM     22  C   UNL     1     -44.891 -18.822 -21.322  0.00  0.00    +0.000 A 
ATOM     23  C   UNL     1     -43.594 -19.219 -21.669  0.00  0.00    +0.000 A 
ATOM     24  C   UNL     1     -42.699 -19.629 -20.677  0.00  0.00    +0.000 A 
ATOM     25  C   UNL     1     -43.098 -19.639 -19.336  0.00  0.00    +0.000 A 
ATOM     26  C   UNL     1     -44.390 -19.235 -18.988  0.00  0.00    +0.000 A 
ATOM     27  C   UNL     1     -45.285 -18.823 -19.980  0.00  0.00    +0.000 A 
ATOM     28  F   UNL     1     -42.231 -20.038 -18.375  0.00  0.00    +0.000 F 
ENDBRANCH  21  22
ENDBRANCH  20  21
ENDBRANCH   4  18
BRANCH   1  29
ATOM     29  C   UNL     1     -40.942 -20.232 -26.472  0.00  0.00    +0.000 C 
BRANCH  29  31
ATOM     30  C   UNL     1     -39.820 -22.284 -25.512  0.00  0.00    +0.000 C 
ATOM     31  C   UNL     1     -40.377 -20.902 -25.216  0.00  0.00    +0.000 C 
ATOM     32  C   UNL     1     -41.398 -20.967 -24.095  0.00  0.00    +0.000 C 
ENDBRANCH  29  31
ENDBRANCH   1  29
TORSDOF 8
ENDMDL
MODEL 2
REMARK VINA RESULT:      -6.3      2.098      3.032
REMARK  Name = ZINC000036054391 ZINC36054391 PubChem-93152296
REMARK  8 active torsions:
REMARK  status: ('A' for Active; 'I' for Inactive)
REMARK    1  A    between atoms: C_2  and  C_4
REMARK    2  A    between atoms: C_4  and  C_5
REMARK    3  A    between atoms: C_7  and  C_18
REMARK    4  A    between atoms: C_8  and  C_10
REMARK    5  A    between atoms: C_11  and  C_12
REMARK    6  A    between atoms: C_11  and  N_31
REMARK    7  A    between atoms: C_22  and  O_29
REMARK    8  A    between atoms: C_23  and  O_28
REMARK                            x       y       z     vdW  Elec       q    Type
REMARK                         _______ _______ _______ _____ _____    ______ ____
ROOT
ATOM      1  C   UNL     1     -44.248 -18.124 -26.164  0.00  0.00    +0.000 C 
ATOM      2  C   UNL     1     -44.379 -15.601 -26.035  0.00  0.00    +0.000 C 
ATOM      3  C   UNL     1     -45.172 -14.636 -25.171  0.00  0.00    +0.000 C 
ATOM      4  C   UNL     1     -46.232 -15.450 -24.428  0.00  0.00    +0.000 C 
ATOM      5  C   UNL     1     -45.963 -16.912 -24.744  0.00  0.00    +0.000 C 
ATOM      6  O   UNL     1     -43.296 -18.062 -26.987  0.00  0.00    +0.000 OA
ATOM      7  N   UNL     1     -44.866 -16.921 -25.690  0.00  0.00    +0.000 N 
ENDROOT
BRANCH   3   8
ATOM      8  C   UNL     1     -45.776 -13.519 -25.974  0.00  0.00    +0.000 A 
ATOM      9  C   UNL     1     -46.254 -13.836 -27.247  0.00  0.00    +0.000 A 
ATOM     10  C   UNL     1     -46.825 -12.856 -28.054  0.00  0.00    +0.000 A 
ATOM     11  C   UNL     1     -46.921 -11.546 -27.591  0.00  0.00    +0.000 A 
ATOM     12  C   UNL     1     -46.449 -11.195 -26.317  0.00  0.00    +0.000 A 
ATOM     13  C   UNL     1     -45.866 -12.192 -25.491  0.00  0.00    +0.000 A 
BRANCH  13  15
ATOM     14  C   UNL     1     -44.091 -11.377 -23.913  0.00  0.00    +0.000 C 
ATOM     15  O   UNL     1     -45.369 -11.923 -24.202  0.00  0.00    +0.000 OA
ENDBRANCH  13  15
BRANCH  12  17
ATOM     16  C   UNL     1     -45.659  -8.844 -26.276  0.00  0.00    +0.000 C 
ATOM     17  O   UNL     1     -46.555  -9.872 -25.873  0.00  0.00    +0.000 OA
ENDBRANCH  12  17
ENDBRANCH   3   8
BRANCH   4  18
ATOM     18  C   UNL     1     -46.133 -15.212 -22.957  0.00  0.00    +0.000 C 
ATOM     19  O   UNL     1     -46.639 -14.170 -22.464  0.00  0.00    +0.000 OA
ATOM     20  N   UNL     1     -45.476 -16.166 -22.120  0.00  0.00    +0.000 NA
BRANCH  20  21
ATOM     21  C   UNL     1     -45.376 -15.996 -20.681  0.00  0.00    +0.000 C 
BRANCH  21  22
ATOM     22  C   UNL     1     -45.268 -17.329 -20.029  0.00  0.00    +0.000 A 
ATOM     23  C   UNL     1     -44.112 -17.669 -19.317  0.00  0.00    +0.000 A 
ATOM     24  C   UNL     1     -44.023 -18.909 -18.678  0.00  0.00    +0.000 A 
ATOM     25  C   UNL     1     -45.092 -19.808 -18.744  0.00  0.00    +0.000 A 
ATOM     26  C   UNL     1     -46.251 -19.466 -19.447  0.00  0.00    +0.000 A 
ATOM     27  C   UNL     1     -46.341 -18.226 -20.087  0.00  0.00    +0.000 A 
ATOM     28  F   UNL     1     -45.006 -21.009 -18.125  0.00  0.00    +0.000 F 
ENDBRANCH  21  22
ENDBRANCH  20  21
ENDBRANCH   4  18
BRANCH   1  29
ATOM     29  C   UNL     1     -44.732 -19.465 -25.692  0.00  0.00    +0.000 C 
BRANCH  29  31
ATOM     30  C   UNL     1     -44.179 -19.404 -23.227  0.00  0.00    +0.000 C 
ATOM     31  C   UNL     1     -43.882 -20.058 -24.565  0.00  0.00    +0.000 C 
ATOM     32  C   UNL     1     -42.397 -19.992 -24.874  0.00  0.00    +0.000 C 
ENDBRANCH  29  31
ENDBRANCH   1  29
TORSDOF 8
ENDMDL
MODEL 3
REMARK VINA RESULT:      -6.2      3.175      7.895
REMARK  Name = ZINC000036054391 ZINC36054391 PubChem-93152296
REMARK  8 active torsions:
REMARK  status: ('A' for Active; 'I' for Inactive)
REMARK    1  A    between atoms: C_2  and  C_4
REMARK    2  A    between atoms: C_4  and  C_5
REMARK    3  A    between atoms: C_7  and  C_18
REMARK    4  A    between atoms: C_8  and  C_10
REMARK    5  A    between atoms: C_11  and  C_12
REMARK    6  A    between atoms: C_11  and  N_31
REMARK    7  A    between atoms: C_22  and  O_29
REMARK    8  A    between atoms: C_23  and  O_28
REMARK                            x       y       z     vdW  Elec       q    Type
REMARK                         _______ _______ _______ _____ _____    ______ ____
ROOT
ATOM      1  C   UNL     1     -45.253 -14.339 -24.976  0.00  0.00    +0.000 C 
ATOM      2  C   UNL     1     -44.252 -16.113 -23.476  0.00  0.00    +0.000 C 
ATOM      3  C   UNL     1     -44.394 -17.623 -23.401  0.00  0.00    +0.000 C 
ATOM      4  C   UNL     1     -45.565 -18.020 -24.301  0.00  0.00    +0.000 C 
ATOM      5  C   UNL     1     -46.015 -16.757 -25.017  0.00  0.00    +0.000 C 
ATOM      6  O   UNL     1     -44.517 -13.451 -24.468  0.00  0.00    +0.000 OA
ATOM      7  N   UNL     1     -45.200 -15.683 -24.483  0.00  0.00    +0.000 N 
ENDROOT
BRANCH   3   8
ATOM      8  C   UNL     1     -44.574 -18.107 -21.990  0.00  0.00    +0.000 A 
ATOM      9  C   UNL     1     -45.646 -17.580 -21.268  0.00  0.00    +0.000 A 
ATOM     10  C   UNL     1     -45.878 -17.976 -19.954  0.00  0.00    +0.000 A 
ATOM     11  C   UNL     1     -45.035 -18.906 -19.350  0.00  0.00    +0.000 A 
ATOM     12  C   UNL     1     -43.948 -19.454 -20.049  0.00  0.00    +0.000 A 
ATOM     13  C   UNL     1     -43.708 -19.053 -21.390  0.00  0.00    +0.000 A 
BRANCH  13  15
ATOM     14  C   UNL     1     -42.690 -20.724 -22.963  0.00  0.00    +0.000 C 
ATOM     15  O   UNL     1     -42.642 -19.554 -22.159  0.00  0.00    +0.000 OA
ENDBRANCH  13  15
BRANCH  12  17
ATOM     16  C   UNL     1     -42.520 -20.165 -18.150  0.00  0.00    +0.000 C 
ATOM     17  O   UNL     1     -43.114 -20.387 -19.423  0.00  0.00    +0.000 OA
ENDBRANCH  12  17
ENDBRANCH   3   8
BRANCH   4  18
ATOM     18  C   UNL     1     -45.135 -19.050 -25.291  0.00  0.00    +0.000 C 
ATOM     19  O   UNL     1     -45.778 -20.129 -25.379  0.00  0.00    +0.000 OA
ATOM     20  N   UNL     1     -44.007 -18.807 -26.135  0.00  0.00    +0.000 NA
BRANCH  20  21
ATOM     21  C   UNL     1     -43.563 -19.765 -27.132  0.00  0.00    +0.000 C 
BRANCH  21  22
ATOM     22  C   UNL     1     -42.507 -19.148 -27.978  0.00  0.00    +0.000 A 
ATOM     23  C   UNL     1     -41.964 -19.863 -29.052  0.00  0.00    +0.000 A 
ATOM     24  C   UNL     1     -40.994 -19.272 -29.867  0.00  0.00    +0.000 A 
ATOM     25  C   UNL     1     -40.570 -17.964 -29.612  0.00  0.00    +0.000 A 
ATOM     26  C   UNL     1     -41.118 -17.246 -28.546  0.00  0.00    +0.000 A 
ATOM     27  C   UNL     1     -42.089 -17.836 -27.730  0.00  0.00    +0.000 A 
ATOM     28  F   UNL     1     -39.630 -17.391 -30.402  0.00  0.00    +0.000 F 
ENDBRANCH  21  22
ENDBRANCH  20  21
ENDBRANCH   4  18
BRANCH   1  29
ATOM     29  C   UNL     1     -46.188 -13.974 -26.093  0.00  0.00    +0.000 C 
BRANCH  29  31
ATOM     30  C   UNL     1     -46.437 -13.144 -28.467  0.00  0.00    +0.000 C 
ATOM     31  C   UNL     1     -45.470 -13.627 -27.400  0.00  0.00    +0.000 C 
ATOM     32  C   UNL     1     -44.639 -14.786 -27.920  0.00  0.00    +0.000 C 
ENDBRANCH  29  31
ENDBRANCH   1  29
TORSDOF 8
ENDMDL
