MODEL 1
REMARK VINA RESULT:      -7.5      0.000      0.000
REMARK  Name = ZINC000409246055 PubChem-126252235
REMARK  6 active torsions:
REMARK  status: ('A' for Active; 'I' for Inactive)
REMARK    1  A    between atoms: N_1  and  C_32
REMARK    2  A    between atoms: C_8  and  C_12
REMARK    3  A    between atoms: N_19  and  C_21
REMARK    4  A    between atoms: C_21  and  C_22
REMARK    5  A    between atoms: C_29  and  O_36
REMARK    6  A    between atoms: C_33  and  O_37
REMARK                            x       y       z     vdW  Elec       q    Type
REMARK                         _______ _______ _______ _____ _____    ______ ____
ROOT
ATOM      1  N   UNL     1     -46.652  -9.902 -27.057  0.00  0.00    +0.000 N 
ATOM      2  C   UNL     1     -46.679 -11.286 -26.652  0.00  0.00    +0.000 C 
ATOM      3  O   UNL     1     -46.581 -11.602 -25.436  0.00  0.00    +0.000 OA
ATOM      4  N   UNL     1     -46.811 -12.320 -27.630  0.00  0.00    +0.000 N 
ATOM      5  C   UNL     1     -46.816 -12.026 -29.026  0.00  0.00    +0.000 C 
ATOM      6  O   UNL     1     -46.913 -12.971 -29.855  0.00  0.00    +0.000 OA
ATOM      7  C   UNL     1     -46.681 -10.631 -29.483  0.00  0.00    +0.000 C 
ATOM      8  C   UNL     1     -46.484 -10.396 -30.792  0.00  0.00    +0.000 C 
ATOM      9  C   UNL     1     -46.802  -9.570 -28.452  0.00  0.00    +0.000 C 
ATOM     10  O   UNL     1     -47.125  -8.395 -28.781  0.00  0.00    +0.000 OA
ATOM     11  H   UNL     1     -46.899 -13.254 -27.334  0.00  0.00    +0.000 HD
ENDROOT
BRANCH   8  12
ATOM     12  C   UNL     1     -46.152  -9.114 -31.437  0.00  0.00    +0.000 A 
ATOM     13  C   UNL     1     -47.164  -8.247 -31.916  0.00  0.00    +0.000 A 
ATOM     14  C   UNL     1     -46.842  -6.994 -32.463  0.00  0.00    +0.000 A 
ATOM     15  C   UNL     1     -45.494  -6.637 -32.497  0.00  0.00    +0.000 A 
ATOM     16  C   UNL     1     -44.515  -7.457 -32.012  0.00  0.00    +0.000 A 
ATOM     17  C   UNL     1     -43.297  -6.826 -32.179  0.00  0.00    +0.000 A 
ATOM     18  C   UNL     1     -43.614  -5.604 -32.784  0.00  0.00    +0.000 A 
ATOM     19  N   UNL     1     -44.952  -5.504 -32.964  0.00  0.00    +0.000 N 
ATOM     20  C   UNL     1     -44.807  -8.702 -31.462  0.00  0.00    +0.000 A 
BRANCH  19  21
ATOM     21  C   UNL     1     -45.645  -4.391 -33.597  0.00  0.00    +0.000 C 
BRANCH  21  22
ATOM     22  C   UNL     1     -45.260  -3.105 -32.947  0.00  0.00    +0.000 A 
ATOM     23  C   UNL     1     -45.711  -2.809 -31.656  0.00  0.00    +0.000 A 
ATOM     24  C   UNL     1     -45.374  -1.590 -31.060  0.00  0.00    +0.000 A 
ATOM     25  C   UNL     1     -44.591  -0.664 -31.755  0.00  0.00    +0.000 A 
ATOM     26  C   UNL     1     -44.144  -0.956 -33.047  0.00  0.00    +0.000 A 
ATOM     27  F   UNL     1     -43.389  -0.056 -33.722  0.00  0.00    +0.000 F 
ATOM     28  C   UNL     1     -44.481  -2.175 -33.644  0.00  0.00    +0.000 A 
ENDBRANCH  21  22
ENDBRANCH  19  21
ENDBRANCH   8  12
BRANCH   1  32
ATOM     29  C   UNL     1     -46.374  -6.788 -24.168  0.00  0.00    +0.000 A 
ATOM     30  C   UNL     1     -47.595  -7.439 -24.400  0.00  0.00    +0.000 A 
ATOM     31  C   UNL     1     -47.676  -8.463 -25.347  0.00  0.00    +0.000 A 
ATOM     32  C   UNL     1     -46.542  -8.855 -26.073  0.00  0.00    +0.000 A 
ATOM     33  C   UNL     1     -45.311  -8.210 -25.839  0.00  0.00    +0.000 A 
ATOM     34  C   UNL     1     -45.242  -7.179 -24.887  0.00  0.00    +0.000 A 
BRANCH  29  36
ATOM     35  C   UNL     1     -47.200  -4.697 -23.137  0.00  0.00    +0.000 C 
ATOM     36  O   UNL     1     -46.260  -5.760 -23.230  0.00  0.00    +0.000 OA
ENDBRANCH  29  36
BRANCH  33  37
ATOM     37  O   UNL     1     -44.173  -8.613 -26.547  0.00  0.00    +0.000 OA
ATOM     38  C   UNL     1     -43.476  -7.754 -27.439  0.00  0.00    +0.000 C 
ENDBRANCH  33  37
ENDBRANCH   1  32
TORSDOF 6
ENDMDL
MODEL 2
REMARK VINA RESULT:      -7.0      3.174      7.748
REMARK  Name = ZINC000409246055 PubChem-126252235
REMARK  6 active torsions:
REMARK  status: ('A' for Active; 'I' for Inactive)
REMARK    1  A    between atoms: N_1  and  C_32
REMARK    2  A    between atoms: C_8  and  C_12
REMARK    3  A    between atoms: N_19  and  C_21
REMARK    4  A    between atoms: C_21  and  C_22
REMARK    5  A    between atoms: C_29  and  O_36
REMARK    6  A    between atoms: C_33  and  O_37
REMARK                            x       y       z     vdW  Elec       q    Type
REMARK                         _______ _______ _______ _____ _____    ______ ____
ROOT
ATOM      1  N   UNL     1     -43.991  -6.712 -31.275  0.00  0.00    +0.000 N 
ATOM      2  C   UNL     1     -43.783  -7.678 -32.326  0.00  0.00    +0.000 C 
ATOM      3  O   UNL     1     -43.775  -7.322 -33.534  0.00  0.00    +0.000 OA
ATOM      4  N   UNL     1     -43.591  -9.058 -32.007  0.00  0.00    +0.000 N 
ATOM      5  C   UNL     1     -43.699  -9.534 -30.666  0.00  0.00    +0.000 C 
ATOM      6  O   UNL     1     -43.543 -10.762 -30.433  0.00  0.00    +0.000 OA
ATOM      7  C   UNL     1     -44.019  -8.592 -29.577  0.00  0.00    +0.000 C 
ATOM      8  C   UNL     1     -44.316  -9.087 -28.363  0.00  0.00    +0.000 C 
ATOM      9  C   UNL     1     -43.960  -7.144 -29.900  0.00  0.00    +0.000 C 
ATOM     10  O   UNL     1     -43.794  -6.294 -28.983  0.00  0.00    +0.000 OA
ATOM     11  H   UNL     1     -43.380  -9.694 -32.729  0.00  0.00    +0.000 HD
ENDROOT
BRANCH   8  12
ATOM     12  C   UNL     1     -44.829  -8.353 -27.193  0.00  0.00    +0.000 A 
ATOM     13  C   UNL     1     -46.185  -7.952 -27.113  0.00  0.00    +0.000 A 
ATOM     14  C   UNL     1     -46.683  -7.317 -25.963  0.00  0.00    +0.000 A 
ATOM     15  C   UNL     1     -45.796  -7.119 -24.905  0.00  0.00    +0.000 A 
ATOM     16  C   UNL     1     -44.494  -7.528 -24.965  0.00  0.00    +0.000 A 
ATOM     17  C   UNL     1     -43.879  -7.200 -23.772  0.00  0.00    +0.000 A 
ATOM     18  C   UNL     1     -44.883  -6.581 -23.019  0.00  0.00    +0.000 A 
ATOM     19  N   UNL     1     -46.041  -6.546 -23.719  0.00  0.00    +0.000 N 
ATOM     20  C   UNL     1     -43.975  -8.161 -26.092  0.00  0.00    +0.000 A 
BRANCH  19  21
ATOM     21  C   UNL     1     -47.290  -5.945 -23.272  0.00  0.00    +0.000 C 
BRANCH  21  22
ATOM     22  C   UNL     1     -47.224  -4.461 -23.403  0.00  0.00    +0.000 A 
ATOM     23  C   UNL     1     -47.224  -3.656 -22.258  0.00  0.00    +0.000 A 
ATOM     24  C   UNL     1     -47.193  -2.263 -22.382  0.00  0.00    +0.000 A 
ATOM     25  C   UNL     1     -47.168  -1.675 -23.650  0.00  0.00    +0.000 A 
ATOM     26  C   UNL     1     -47.174  -2.478 -24.795  0.00  0.00    +0.000 A 
ATOM     27  F   UNL     1     -47.154  -1.906 -26.023  0.00  0.00    +0.000 F 
ATOM     28  C   UNL     1     -47.205  -3.870 -24.671  0.00  0.00    +0.000 A 
ENDBRANCH  21  22
ENDBRANCH  19  21
ENDBRANCH   8  12
BRANCH   1  32
ATOM     29  C   UNL     1     -44.460  -2.577 -32.168  0.00  0.00    +0.000 A 
ATOM     30  C   UNL     1     -43.182  -3.136 -32.026  0.00  0.00    +0.000 A 
ATOM     31  C   UNL     1     -43.037  -4.494 -31.738  0.00  0.00    +0.000 A 
ATOM     32  C   UNL     1     -44.163  -5.317 -31.589  0.00  0.00    +0.000 A 
ATOM     33  C   UNL     1     -45.451  -4.762 -31.739  0.00  0.00    +0.000 A 
ATOM     34  C   UNL     1     -45.585  -3.394 -32.025  0.00  0.00    +0.000 A 
BRANCH  29  36
ATOM     35  C   UNL     1     -43.625  -0.421 -33.046  0.00  0.00    +0.000 C 
ATOM     36  O   UNL     1     -44.640  -1.221 -32.454  0.00  0.00    +0.000 OA
ENDBRANCH  29  36
BRANCH  33  37
ATOM     37  O   UNL     1     -46.577  -5.584 -31.612  0.00  0.00    +0.000 OA
ATOM     38  C   UNL     1     -47.510  -5.455 -30.549  0.00  0.00    +0.000 C 
ENDBRANCH  33  37
ENDBRANCH   1  32
TORSDOF 6
ENDMDL
MODEL 3
REMARK VINA RESULT:      -6.9      5.040      7.159
REMARK  Name = ZINC000409246055 PubChem-126252235
REMARK  6 active torsions:
REMARK  status: ('A' for Active; 'I' for Inactive)
REMARK    1  A    between atoms: N_1  and  C_32
REMARK    2  A    between atoms: C_8  and  C_12
REMARK    3  A    between atoms: N_19  and  C_21
REMARK    4  A    between atoms: C_21  and  C_22
REMARK    5  A    between atoms: C_29  and  O_36
REMARK    6  A    between atoms: C_33  and  O_37
REMARK                            x       y       z     vdW  Elec       q    Type
REMARK                         _______ _______ _______ _____ _____    ______ ____
ROOT
ATOM      1  N   UNL     1     -45.240 -13.996 -26.567  0.00  0.00    +0.000 N 
ATOM      2  C   UNL     1     -44.796 -14.768 -27.702  0.00  0.00    +0.000 C 
ATOM      3  O   UNL     1     -44.326 -15.927 -27.546  0.00  0.00    +0.000 OA
ATOM      4  N   UNL     1     -44.879 -14.223 -29.020  0.00  0.00    +0.000 N 
ATOM      5  C   UNL     1     -45.300 -12.878 -29.243  0.00  0.00    +0.000 C 
ATOM      6  O   UNL     1     -45.338 -12.431 -30.421  0.00  0.00    +0.000 OA
ATOM      7  C   UNL     1     -45.658 -12.021 -28.098  0.00  0.00    +0.000 C 
ATOM      8  C   UNL     1     -45.855 -10.708 -28.310  0.00  0.00    +0.000 C 
ATOM      9  C   UNL     1     -45.806 -12.687 -26.779  0.00  0.00    +0.000 C 
ATOM     10  O   UNL     1     -46.501 -12.154 -25.871  0.00  0.00    +0.000 OA
ATOM     11  H   UNL     1     -44.639 -14.787 -29.790  0.00  0.00    +0.000 HD
ENDROOT
BRANCH   8  12
ATOM     12  C   UNL     1     -46.044  -9.652 -27.302  0.00  0.00    +0.000 A 
ATOM     13  C   UNL     1     -47.336  -9.179 -26.965  0.00  0.00    +0.000 A 
ATOM     14  C   UNL     1     -47.513  -8.224 -25.950  0.00  0.00    +0.000 A 
ATOM     15  C   UNL     1     -46.372  -7.779 -25.282  0.00  0.00    +0.000 A 
ATOM     16  C   UNL     1     -45.126  -8.251 -25.584  0.00  0.00    +0.000 A 
ATOM     17  C   UNL     1     -44.213  -7.631 -24.752  0.00  0.00    +0.000 A 
ATOM     18  C   UNL     1     -44.986  -6.777 -23.957  0.00  0.00    +0.000 A 
ATOM     19  N   UNL     1     -46.294  -6.884 -24.287  0.00  0.00    +0.000 N 
ATOM     20  C   UNL     1     -44.923  -9.199 -26.582  0.00  0.00    +0.000 A 
BRANCH  19  21
ATOM     21  C   UNL     1     -47.387  -6.123 -23.700  0.00  0.00    +0.000 C 
BRANCH  21  22
ATOM     22  C   UNL     1     -47.369  -4.720 -24.206  0.00  0.00    +0.000 A 
ATOM     23  C   UNL     1     -47.415  -4.470 -25.582  0.00  0.00    +0.000 A 
ATOM     24  C   UNL     1     -47.367  -3.155 -26.056  0.00  0.00    +0.000 A 
ATOM     25  C   UNL     1     -47.268  -2.091 -25.156  0.00  0.00    +0.000 A 
ATOM     26  C   UNL     1     -47.217  -2.339 -23.781  0.00  0.00    +0.000 A 
ATOM     27  F   UNL     1     -47.117  -1.306 -22.910  0.00  0.00    +0.000 F 
ATOM     28  C   UNL     1     -47.265  -3.653 -23.306  0.00  0.00    +0.000 A 
ENDBRANCH  21  22
ENDBRANCH  19  21
ENDBRANCH   8  12
BRANCH   1  32
ATOM     29  C   UNL     1     -45.114 -15.619 -22.634  0.00  0.00    +0.000 A 
ATOM     30  C   UNL     1     -46.209 -15.869 -23.475  0.00  0.00    +0.000 A 
ATOM     31  C   UNL     1     -46.240 -15.337 -24.765  0.00  0.00    +0.000 A 
ATOM     32  C   UNL     1     -45.180 -14.549 -25.238  0.00  0.00    +0.000 A 
ATOM     33  C   UNL     1     -44.074 -14.301 -24.400  0.00  0.00    +0.000 A 
ATOM     34  C   UNL     1     -44.055 -14.838 -23.103  0.00  0.00    +0.000 A 
BRANCH  29  36
ATOM     35  C   UNL     1     -45.448 -17.462 -21.020  0.00  0.00    +0.000 C 
ATOM     36  O   UNL     1     -45.054 -16.134 -21.337  0.00  0.00    +0.000 OA
ENDBRANCH  29  36
BRANCH  33  37
ATOM     37  O   UNL     1     -43.004 -13.532 -24.876  0.00  0.00    +0.000 OA
ATOM     38  C   UNL     1     -42.846 -12.155 -24.566  0.00  0.00    +0.000 C 
ENDBRANCH  33  37
ENDBRANCH   1  32
TORSDOF 6
ENDMDL
