MODEL 1
REMARK VINA RESULT:      -6.4      0.000      0.000
REMARK  Name = ZINC000030726767 ZINC30726767 PubChem-37870901
REMARK  7 active torsions:
REMARK  status: ('A' for Active; 'I' for Inactive)
REMARK    1  A    between atoms: N_1  and  C_10
REMARK    2  A    between atoms: C_2  and  C_18
REMARK    3  A    between atoms: C_5  and  O_15
REMARK    4  A    between atoms: O_15  and  C_17
REMARK    5  A    between atoms: C_18  and  C_19
REMARK    6  A    between atoms: C_19  and  C_20
REMARK    7  A    between atoms: C_29  and  O_32
REMARK                            x       y       z     vdW  Elec       q    Type
REMARK                         _______ _______ _______ _____ _____    ______ ____
ROOT
ATOM      1  N   UNL     1     -42.808 -16.396 -26.188  0.00  0.00    +0.000 N 
ATOM      2  C   UNL     1     -42.752 -17.825 -26.283  0.00  0.00    +0.000 C 
ATOM      3  O   UNL     1     -41.654 -18.407 -26.080  0.00  0.00    +0.000 OA
ATOM      4  H   UNL     1     -42.018 -15.953 -25.804  0.00  0.00    +0.000 HD
ENDROOT
BRANCH   1  10
ATOM      5  C   UNL     1     -44.768 -15.035 -25.601  0.00  0.00    +0.000 A 
ATOM      6  C   UNL     1     -45.821 -14.169 -25.970  0.00  0.00    +0.000 A 
ATOM      7  C   UNL     1     -45.962 -13.828 -27.312  0.00  0.00    +0.000 A 
ATOM      8  C   UNL     1     -45.105 -14.300 -28.258  0.00  0.00    +0.000 A 
ATOM      9  C   UNL     1     -44.053 -15.150 -27.935  0.00  0.00    +0.000 A 
ATOM     10  C   UNL     1     -43.886 -15.537 -26.589  0.00  0.00    +0.000 A 
ATOM     11  O   UNL     1     -45.430 -13.830 -29.510  0.00  0.00    +0.000 OA
ATOM     12  C   UNL     1     -46.585 -12.993 -29.433  0.00  0.00    +0.000 C 
ATOM     13  C   UNL     1     -46.977 -12.946 -27.939  0.00  0.00    +0.000 C 
ATOM     14  C   UNL     1     -46.243 -11.600 -29.919  0.00  0.00    +0.000 C 
BRANCH   5  15
ATOM     15  O   UNL     1     -44.581 -15.411 -24.266  0.00  0.00    +0.000 OA
BRANCH  15  17
ATOM     16  C   UNL     1     -46.003 -15.054 -22.369  0.00  0.00    +0.000 C 
ATOM     17  C   UNL     1     -44.833 -14.534 -23.177  0.00  0.00    +0.000 C 
ENDBRANCH  15  17
ENDBRANCH   5  15
ENDBRANCH   1  10
BRANCH   2  18
ATOM     18  C   UNL     1     -43.967 -18.656 -26.532  0.00  0.00    +0.000 C 
BRANCH  18  19
ATOM     19  C   UNL     1     -43.937 -19.888 -25.644  0.00  0.00    +0.000 C 
BRANCH  19  20
ATOM     20  C   UNL     1     -44.175 -19.512 -24.209  0.00  0.00    +0.000 A 
ATOM     21  C   UNL     1     -43.217 -19.861 -23.223  0.00  0.00    +0.000 A 
ATOM     22  C   UNL     1     -43.475 -19.462 -21.904  0.00  0.00    +0.000 A 
ATOM     23  C   UNL     1     -44.637 -18.816 -21.591  0.00  0.00    +0.000 A 
ATOM     24  N   UNL     1     -45.565 -18.480 -22.518  0.00  0.00    +0.000 NA
ATOM     25  C   UNL     1     -45.347 -18.800 -23.828  0.00  0.00    +0.000 A 
ATOM     26  C   UNL     1     -46.364 -18.384 -24.836  0.00  0.00    +0.000 C 
ATOM     27  N   UNL     1     -44.723 -18.621 -20.268  0.00  0.00    +0.000 N 
ATOM     28  N   UNL     1     -43.637 -19.117 -19.690  0.00  0.00    +0.000 NA
ATOM     29  C   UNL     1     -42.845 -19.623 -20.666  0.00  0.00    +0.000 A 
ATOM     30  C   UNL     1     -45.817 -17.992 -19.549  0.00  0.00    +0.000 C 
ATOM     31  C   UNL     1     -42.030 -20.695 -23.578  0.00  0.00    +0.000 C 
BRANCH  29  32
ATOM     32  O   UNL     1     -41.599 -20.189 -20.389  0.00  0.00    +0.000 OA
ATOM     33  C   UNL     1     -41.446 -21.381 -19.637  0.00  0.00    +0.000 C 
ENDBRANCH  29  32
ENDBRANCH  19  20
ENDBRANCH  18  19
ENDBRANCH   2  18
TORSDOF 7
ENDMDL
MODEL 2
REMARK VINA RESULT:      -6.4      8.924     15.065
REMARK  Name = ZINC000030726767 ZINC30726767 PubChem-37870901
REMARK  7 active torsions:
REMARK  status: ('A' for Active; 'I' for Inactive)
REMARK    1  A    between atoms: N_1  and  C_10
REMARK    2  A    between atoms: C_2  and  C_18
REMARK    3  A    between atoms: C_5  and  O_15
REMARK    4  A    between atoms: O_15  and  C_17
REMARK    5  A    between atoms: C_18  and  C_19
REMARK    6  A    between atoms: C_19  and  C_20
REMARK    7  A    between atoms: C_29  and  O_32
REMARK                            x       y       z     vdW  Elec       q    Type
REMARK                         _______ _______ _______ _____ _____    ______ ____
ROOT
ATOM      1  N   UNL     1     -46.623  -5.815 -28.647  0.00  0.00    +0.000 N 
ATOM      2  C   UNL     1     -47.245  -5.028 -29.672  0.00  0.00    +0.000 C 
ATOM      3  O   UNL     1     -47.750  -3.917 -29.366  0.00  0.00    +0.000 OA
ATOM      4  H   UNL     1     -46.476  -5.366 -27.784  0.00  0.00    +0.000 HD
ENDROOT
BRANCH   1  10
ATOM      5  C   UNL     1     -44.870  -7.509 -28.344  0.00  0.00    +0.000 A 
ATOM      6  C   UNL     1     -44.431  -8.850 -28.401  0.00  0.00    +0.000 A 
ATOM      7  C   UNL     1     -45.321  -9.823 -28.846  0.00  0.00    +0.000 A 
ATOM      8  C   UNL     1     -46.594  -9.507 -29.209  0.00  0.00    +0.000 A 
ATOM      9  C   UNL     1     -47.066  -8.200 -29.163  0.00  0.00    +0.000 A 
ATOM     10  C   UNL     1     -46.190  -7.181 -28.737  0.00  0.00    +0.000 A 
ATOM     11  O   UNL     1     -47.294 -10.623 -29.608  0.00  0.00    +0.000 OA
ATOM     12  C   UNL     1     -46.458 -11.779 -29.530  0.00  0.00    +0.000 C 
ATOM     13  C   UNL     1     -45.097 -11.283 -28.993  0.00  0.00    +0.000 C 
ATOM     14  C   UNL     1     -47.057 -12.781 -28.565  0.00  0.00    +0.000 C 
BRANCH   5  15
ATOM     15  O   UNL     1     -44.015  -6.491 -27.905  0.00  0.00    +0.000 OA
BRANCH  15  17
ATOM     16  C   UNL     1     -43.134  -5.699 -29.989  0.00  0.00    +0.000 C 
ATOM     17  C   UNL     1     -42.812  -6.153 -28.581  0.00  0.00    +0.000 C 
ENDBRANCH  15  17
ENDBRANCH   5  15
ENDBRANCH   1  10
BRANCH   2  18
ATOM     18  C   UNL     1     -47.243  -5.443 -31.106  0.00  0.00    +0.000 C 
BRANCH  18  19
ATOM     19  C   UNL     1     -47.074  -4.222 -31.993  0.00  0.00    +0.000 C 
BRANCH  19  20
ATOM     20  C   UNL     1     -45.690  -4.177 -32.574  0.00  0.00    +0.000 A 
ATOM     21  C   UNL     1     -44.800  -3.142 -32.190  0.00  0.00    +0.000 A 
ATOM     22  C   UNL     1     -43.511  -3.161 -32.742  0.00  0.00    +0.000 A 
ATOM     23  C   UNL     1     -43.164  -4.115 -33.657  0.00  0.00    +0.000 A 
ATOM     24  N   UNL     1     -44.003  -5.107 -34.040  0.00  0.00    +0.000 NA
ATOM     25  C   UNL     1     -45.256  -5.168 -33.501  0.00  0.00    +0.000 A 
ATOM     26  C   UNL     1     -46.148  -6.292 -33.907  0.00  0.00    +0.000 C 
ATOM     27  N   UNL     1     -41.930  -3.888 -34.127  0.00  0.00    +0.000 N 
ATOM     28  N   UNL     1     -41.440  -2.805 -33.537  0.00  0.00    +0.000 NA
ATOM     29  C   UNL     1     -42.377  -2.347 -32.671  0.00  0.00    +0.000 A 
ATOM     30  C   UNL     1     -41.221  -4.665 -35.128  0.00  0.00    +0.000 C 
ATOM     31  C   UNL     1     -45.260  -2.034 -31.301  0.00  0.00    +0.000 C 
BRANCH  29  32
ATOM     32  O   UNL     1     -42.153  -1.232 -31.860  0.00  0.00    +0.000 OA
ATOM     33  C   UNL     1     -41.136  -0.281 -32.126  0.00  0.00    +0.000 C 
ENDBRANCH  29  32
ENDBRANCH  19  20
ENDBRANCH  18  19
ENDBRANCH   2  18
TORSDOF 7
ENDMDL
MODEL 3
REMARK VINA RESULT:      -6.4      2.627      7.675
REMARK  Name = ZINC000030726767 ZINC30726767 PubChem-37870901
REMARK  7 active torsions:
REMARK  status: ('A' for Active; 'I' for Inactive)
REMARK    1  A    between atoms: N_1  and  C_10
REMARK    2  A    between atoms: C_2  and  C_18
REMARK    3  A    between atoms: C_5  and  O_15
REMARK    4  A    between atoms: O_15  and  C_17
REMARK    5  A    between atoms: C_18  and  C_19
REMARK    6  A    between atoms: C_19  and  C_20
REMARK    7  A    between atoms: C_29  and  O_32
REMARK                            x       y       z     vdW  Elec       q    Type
REMARK                         _______ _______ _______ _____ _____    ______ ____
ROOT
ATOM      1  N   UNL     1     -44.275 -19.056 -20.358  0.00  0.00    +0.000 N 
ATOM      2  C   UNL     1     -43.757 -19.209 -21.685  0.00  0.00    +0.000 C 
ATOM      3  O   UNL     1     -43.333 -20.337 -22.048  0.00  0.00    +0.000 OA
ATOM      4  H   UNL     1     -44.427 -19.886 -19.851  0.00  0.00    +0.000 HD
ENDROOT
BRANCH   1  10
ATOM      5  C   UNL     1     -43.608 -17.201 -18.891  0.00  0.00    +0.000 A 
ATOM      6  C   UNL     1     -43.898 -15.983 -18.237  0.00  0.00    +0.000 A 
ATOM      7  C   UNL     1     -45.164 -15.429 -18.394  0.00  0.00    +0.000 A 
ATOM      8  C   UNL     1     -46.111 -16.029 -19.166  0.00  0.00    +0.000 A 
ATOM      9  C   UNL     1     -45.864 -17.226 -19.830  0.00  0.00    +0.000 A 
ATOM     10  C   UNL     1     -44.599 -17.831 -19.682  0.00  0.00    +0.000 A 
ATOM     11  O   UNL     1     -47.281 -15.305 -19.180  0.00  0.00    +0.000 OA
ATOM     12  C   UNL     1     -47.146 -14.141 -18.362  0.00  0.00    +0.000 C 
ATOM     13  C   UNL     1     -45.702 -14.173 -17.815  0.00  0.00    +0.000 C 
ATOM     14  C   UNL     1     -47.350 -12.897 -19.202  0.00  0.00    +0.000 C 
BRANCH   5  15
ATOM     15  O   UNL     1     -42.350 -17.802 -18.767  0.00  0.00    +0.000 OA
BRANCH  15  17
ATOM     16  C   UNL     1     -41.335 -19.685 -17.684  0.00  0.00    +0.000 C 
ATOM     17  C   UNL     1     -41.838 -18.265 -17.525  0.00  0.00    +0.000 C 
ENDBRANCH  15  17
ENDBRANCH   5  15
ENDBRANCH   1  10
BRANCH   2  18
ATOM     18  C   UNL     1     -43.779 -18.098 -22.682  0.00  0.00    +0.000 C 
BRANCH  18  19
ATOM     19  C   UNL     1     -45.112 -18.087 -23.410  0.00  0.00    +0.000 C 
BRANCH  19  20
ATOM     20  C   UNL     1     -45.115 -17.046 -24.493  0.00  0.00    +0.000 A 
ATOM     21  C   UNL     1     -45.501 -15.716 -24.188  0.00  0.00    +0.000 A 
ATOM     22  C   UNL     1     -45.461 -14.778 -25.230  0.00  0.00    +0.000 A 
ATOM     23  C   UNL     1     -45.116 -15.163 -26.495  0.00  0.00    +0.000 A 
ATOM     24  N   UNL     1     -44.749 -16.429 -26.804  0.00  0.00    +0.000 NA
ATOM     25  C   UNL     1     -44.724 -17.376 -25.822  0.00  0.00    +0.000 A 
ATOM     26  C   UNL     1     -44.278 -18.754 -26.178  0.00  0.00    +0.000 C 
ATOM     27  N   UNL     1     -45.241 -14.136 -27.347  0.00  0.00    +0.000 N 
ATOM     28  N   UNL     1     -45.654 -13.070 -26.676  0.00  0.00    +0.000 NA
ATOM     29  C   UNL     1     -45.782 -13.425 -25.374  0.00  0.00    +0.000 A 
ATOM     30  C   UNL     1     -44.991 -14.156 -28.777  0.00  0.00    +0.000 C 
ATOM     31  C   UNL     1     -46.012 -15.365 -22.830  0.00  0.00    +0.000 C 
BRANCH  29  32
ATOM     32  O   UNL     1     -46.167 -12.510 -24.391  0.00  0.00    +0.000 OA
ATOM     33  C   UNL     1     -45.237 -11.721 -23.669  0.00  0.00    +0.000 C 
ENDBRANCH  29  32
ENDBRANCH  19  20
ENDBRANCH  18  19
ENDBRANCH   2  18
TORSDOF 7
ENDMDL
