MODEL 1
REMARK VINA RESULT:      -6.6      0.000      0.000
REMARK  Name = ZINC000299749536 PubChem-125151685
REMARK  6 active torsions:
REMARK  status: ('A' for Active; 'I' for Inactive)
REMARK    1  A    between atoms: C_2  and  O_22
REMARK    2  A    between atoms: C_5  and  C_6
REMARK    3  A    between atoms: C_7  and  C_8
REMARK    4  A    between atoms: C_9  and  C_10
REMARK    5  A    between atoms: C_9  and  N_27
REMARK    6  A    between atoms: C_13  and  C_14
REMARK                            x       y       z     vdW  Elec       q    Type
REMARK                         _______ _______ _______ _____ _____    ______ ____
ROOT
ATOM      1  C   UNL     1     -43.975 -16.664 -25.749  0.00  0.00    +0.000 C 
ATOM      2  C   UNL     1     -44.650 -18.001 -26.107  0.00  0.00    +0.000 C 
ATOM      3  C   UNL     1     -43.584 -18.909 -26.734  0.00  0.00    +0.000 C 
ATOM      4  C   UNL     1     -42.383 -18.053 -26.757  0.00  0.00    +0.000 C 
ATOM      5  C   UNL     1     -41.558 -15.818 -25.891  0.00  0.00    +0.000 C 
ATOM      6  O   UNL     1     -41.263 -18.430 -27.193  0.00  0.00    +0.000 OA
ATOM      7  N   UNL     1     -42.609 -16.766 -26.223  0.00  0.00    +0.000 N 
ENDROOT
BRANCH   1  11
ATOM      8  C   UNL     1     -46.062 -13.362 -27.564  0.00  0.00    +0.000 A 
ATOM      9  C   UNL     1     -45.191 -14.149 -28.337  0.00  0.00    +0.000 A 
ATOM     10  C   UNL     1     -44.508 -15.220 -27.755  0.00  0.00    +0.000 A 
ATOM     11  C   UNL     1     -44.689 -15.515 -26.396  0.00  0.00    +0.000 A 
ATOM     12  C   UNL     1     -45.558 -14.734 -25.628  0.00  0.00    +0.000 A 
ATOM     13  C   UNL     1     -46.240 -13.662 -26.210  0.00  0.00    +0.000 A 
BRANCH   8  15
ATOM     14  C   UNL     1     -46.975 -12.144 -29.513  0.00  0.00    +0.000 C 
ATOM     15  O   UNL     1     -46.759 -12.283 -28.116  0.00  0.00    +0.000 OA
ENDBRANCH   8  15
ENDBRANCH   1  11
BRANCH   2  16
ATOM     16  C   UNL     1     -45.236 -18.636 -24.890  0.00  0.00    +0.000 C 
ATOM     17  O   UNL     1     -46.261 -19.359 -25.004  0.00  0.00    +0.000 OA
ATOM     18  N   UNL     1     -44.639 -18.422 -23.609  0.00  0.00    +0.000 NA
BRANCH  18  19
ATOM     19  C   UNL     1     -45.178 -19.016 -22.397  0.00  0.00    +0.000 C 
BRANCH  19  20
ATOM     20  C   UNL     1     -45.587 -17.941 -21.452  0.00  0.00    +0.000 A 
ATOM     21  C   UNL     1     -46.078 -18.272 -20.186  0.00  0.00    +0.000 A 
ATOM     22  C   UNL     1     -46.439 -17.263 -19.290  0.00  0.00    +0.000 A 
ATOM     23  C   UNL     1     -46.303 -15.914 -19.650  0.00  0.00    +0.000 A 
ATOM     24  C   UNL     1     -45.802 -15.588 -20.918  0.00  0.00    +0.000 A 
ATOM     25  C   UNL     1     -45.442 -16.599 -21.815  0.00  0.00    +0.000 A 
BRANCH  23  26
ATOM     26  C   UNL     1     -46.681 -14.847 -18.709  0.00  0.00    +0.000 C 
ATOM     27  O   UNL     1     -46.559 -13.636 -19.034  0.00  0.00    +0.000 OA
ATOM     28  O   UNL     1     -47.179 -15.167 -17.451  0.00  0.00    +0.000 OA
ENDBRANCH  23  26
ENDBRANCH  19  20
ENDBRANCH  18  19
ENDBRANCH   2  16
TORSDOF 6
ENDMDL
MODEL 2
REMARK VINA RESULT:      -6.4     10.640     14.090
REMARK  Name = ZINC000299749536 PubChem-125151685
REMARK  6 active torsions:
REMARK  status: ('A' for Active; 'I' for Inactive)
REMARK    1  A    between atoms: C_2  and  O_22
REMARK    2  A    between atoms: C_5  and  C_6
REMARK    3  A    between atoms: C_7  and  C_8
REMARK    4  A    between atoms: C_9  and  C_10
REMARK    5  A    between atoms: C_9  and  N_27
REMARK    6  A    between atoms: C_13  and  C_14
REMARK                            x       y       z     vdW  Elec       q    Type
REMARK                         _______ _______ _______ _____ _____    ______ ____
ROOT
ATOM      1  C   UNL     1     -44.939  -4.208 -32.415  0.00  0.00    +0.000 C 
ATOM      2  C   UNL     1     -46.302  -3.719 -31.893  0.00  0.00    +0.000 C 
ATOM      3  C   UNL     1     -47.376  -4.178 -32.889  0.00  0.00    +0.000 C 
ATOM      4  C   UNL     1     -46.593  -4.848 -33.945  0.00  0.00    +0.000 C 
ATOM      5  C   UNL     1     -44.233  -5.642 -34.422  0.00  0.00    +0.000 C 
ATOM      6  O   UNL     1     -47.105  -5.385 -34.962  0.00  0.00    +0.000 OA
ATOM      7  N   UNL     1     -45.205  -4.843 -33.692  0.00  0.00    +0.000 N 
ENDROOT
BRANCH   1  11
ATOM      8  C   UNL     1     -42.231  -0.892 -32.890  0.00  0.00    +0.000 A 
ATOM      9  C   UNL     1     -41.767  -2.103 -32.348  0.00  0.00    +0.000 A 
ATOM     10  C   UNL     1     -42.639  -3.183 -32.189  0.00  0.00    +0.000 A 
ATOM     11  C   UNL     1     -43.984  -3.063 -32.568  0.00  0.00    +0.000 A 
ATOM     12  C   UNL     1     -44.445  -1.859 -33.110  0.00  0.00    +0.000 A 
ATOM     13  C   UNL     1     -43.573  -0.779 -33.269  0.00  0.00    +0.000 A 
BRANCH   8  15
ATOM     14  C   UNL     1     -40.073   0.257 -32.517  0.00  0.00    +0.000 C 
ATOM     15  O   UNL     1     -41.384   0.206 -33.063  0.00  0.00    +0.000 OA
ENDBRANCH   8  15
ENDBRANCH   1  11
BRANCH   2  16
ATOM     16  C   UNL     1     -46.573  -4.273 -30.533  0.00  0.00    +0.000 C 
ATOM     17  O   UNL     1     -47.153  -3.553 -29.678  0.00  0.00    +0.000 OA
ATOM     18  N   UNL     1     -46.173  -5.606 -30.207  0.00  0.00    +0.000 NA
BRANCH  18  19
ATOM     19  C   UNL     1     -46.411  -6.183 -28.895  0.00  0.00    +0.000 C 
BRANCH  19  20
ATOM     20  C   UNL     1     -45.115  -6.365 -28.186  0.00  0.00    +0.000 A 
ATOM     21  C   UNL     1     -45.098  -6.833 -26.869  0.00  0.00    +0.000 A 
ATOM     22  C   UNL     1     -43.880  -7.027 -26.211  0.00  0.00    +0.000 A 
ATOM     23  C   UNL     1     -42.670  -6.762 -26.869  0.00  0.00    +0.000 A 
ATOM     24  C   UNL     1     -42.694  -6.300 -28.192  0.00  0.00    +0.000 A 
ATOM     25  C   UNL     1     -43.912  -6.106 -28.849  0.00  0.00    +0.000 A 
BRANCH  23  26
ATOM     26  C   UNL     1     -41.385  -6.964 -26.180  0.00  0.00    +0.000 C 
ATOM     27  O   UNL     1     -40.947  -6.099 -25.377  0.00  0.00    +0.000 OA
ATOM     28  O   UNL     1     -40.641  -8.116 -26.410  0.00  0.00    +0.000 OA
ENDBRANCH  23  26
ENDBRANCH  19  20
ENDBRANCH  18  19
ENDBRANCH   2  16
TORSDOF 6
ENDMDL
MODEL 3
REMARK VINA RESULT:      -6.4      1.644      2.323
REMARK  Name = ZINC000299749536 PubChem-125151685
REMARK  6 active torsions:
REMARK  status: ('A' for Active; 'I' for Inactive)
REMARK    1  A    between atoms: C_2  and  O_22
REMARK    2  A    between atoms: C_5  and  C_6
REMARK    3  A    between atoms: C_7  and  C_8
REMARK    4  A    between atoms: C_9  and  C_10
REMARK    5  A    between atoms: C_9  and  N_27
REMARK    6  A    between atoms: C_13  and  C_14
REMARK                            x       y       z     vdW  Elec       q    Type
REMARK                         _______ _______ _______ _____ _____    ______ ____
ROOT
ATOM      1  C   UNL     1     -44.093 -17.356 -24.692  0.00  0.00    +0.000 C 
ATOM      2  C   UNL     1     -45.126 -18.417 -24.269  0.00  0.00    +0.000 C 
ATOM      3  C   UNL     1     -44.950 -19.633 -25.188  0.00  0.00    +0.000 C 
ATOM      4  C   UNL     1     -43.884 -19.205 -26.114  0.00  0.00    +0.000 C 
ATOM      5  C   UNL     1     -42.210 -17.328 -26.434  0.00  0.00    +0.000 C 
ATOM      6  O   UNL     1     -43.425 -19.930 -27.036  0.00  0.00    +0.000 OA
ATOM      7  N   UNL     1     -43.413 -17.901 -25.852  0.00  0.00    +0.000 N 
ENDROOT
BRANCH   1  11
ATOM      8  C   UNL     1     -46.002 -13.624 -25.682  0.00  0.00    +0.000 A 
ATOM      9  C   UNL     1     -45.860 -14.002 -24.336  0.00  0.00    +0.000 A 
ATOM     10  C   UNL     1     -45.244 -15.212 -24.007  0.00  0.00    +0.000 A 
ATOM     11  C   UNL     1     -44.765 -16.056 -25.018  0.00  0.00    +0.000 A 
ATOM     12  C   UNL     1     -44.904 -15.679 -26.357  0.00  0.00    +0.000 A 
ATOM     13  C   UNL     1     -45.521 -14.469 -26.687  0.00  0.00    +0.000 A 
BRANCH   8  15
ATOM     14  C   UNL     1     -46.978 -12.118 -27.384  0.00  0.00    +0.000 C 
ATOM     15  O   UNL     1     -46.613 -12.420 -26.045  0.00  0.00    +0.000 OA
ENDBRANCH   8  15
ENDBRANCH   1  11
BRANCH   2  16
ATOM     16  C   UNL     1     -44.927 -18.802 -22.840  0.00  0.00    +0.000 C 
ATOM     17  O   UNL     1     -43.993 -19.591 -22.538  0.00  0.00    +0.000 OA
ATOM     18  N   UNL     1     -45.793 -18.282 -21.829  0.00  0.00    +0.000 NA
BRANCH  18  19
ATOM     19  C   UNL     1     -45.640 -18.635 -20.427  0.00  0.00    +0.000 C 
BRANCH  19  20
ATOM     20  C   UNL     1     -45.726 -17.407 -19.590  0.00  0.00    +0.000 A 
ATOM     21  C   UNL     1     -44.592 -16.612 -19.396  0.00  0.00    +0.000 A 
ATOM     22  C   UNL     1     -44.678 -15.447 -18.630  0.00  0.00    +0.000 A 
ATOM     23  C   UNL     1     -45.901 -15.063 -18.059  0.00  0.00    +0.000 A 
ATOM     24  C   UNL     1     -47.035 -15.860 -18.264  0.00  0.00    +0.000 A 
ATOM     25  C   UNL     1     -46.948 -17.027 -19.030  0.00  0.00    +0.000 A 
BRANCH  23  26
ATOM     26  C   UNL     1     -45.997 -13.836 -17.252  0.00  0.00    +0.000 C 
ATOM     27  O   UNL     1     -46.577 -12.815 -17.708  0.00  0.00    +0.000 OA
ATOM     28  O   UNL     1     -45.447 -13.792 -15.976  0.00  0.00    +0.000 OA
ENDBRANCH  23  26
ENDBRANCH  19  20
ENDBRANCH  18  19
ENDBRANCH   2  16
TORSDOF 6
ENDMDL
