MODEL 1
REMARK VINA RESULT:      -7.0      0.000      0.000
REMARK  Name = ZINC000009034026 ZINC09034026 PubChem-40911175
REMARK  5 active torsions:
REMARK  status: ('A' for Active; 'I' for Inactive)
REMARK    1  A    between atoms: N_1  and  C_16
REMARK    2  A    between atoms: C_2  and  C_21
REMARK    3  A    between atoms: C_7  and  O_18
REMARK    4  A    between atoms: C_12  and  O_19
REMARK    5  A    between atoms: N_23  and  C_25
REMARK                            x       y       z     vdW  Elec       q    Type
REMARK                         _______ _______ _______ _____ _____    ______ ____
ROOT
ATOM      1  N   UNL     1     -42.763 -18.902 -27.008  0.00  0.00    +0.000 N 
ATOM      2  C   UNL     1     -41.991 -17.787 -26.474  0.00  0.00    +0.000 C 
ATOM      3  C   UNL     1     -40.736 -17.674 -27.357  0.00  0.00    +0.000 C 
ATOM      4  C   UNL     1     -40.787 -18.804 -28.390  0.00  0.00    +0.000 C 
ATOM      5  C   UNL     1     -42.056 -19.489 -28.082  0.00  0.00    +0.000 C 
ATOM      6  O   UNL     1     -42.467 -20.505 -28.702  0.00  0.00    +0.000 OA
ENDROOT
BRANCH   1  16
ATOM      7  C   UNL     1     -43.576 -19.639 -22.070  0.00  0.00    +0.000 A 
ATOM      8  C   UNL     1     -42.642 -20.397 -22.817  0.00  0.00    +0.000 A 
ATOM      9  C   UNL     1     -42.673 -20.418 -24.218  0.00  0.00    +0.000 A 
ATOM     10  C   UNL     1     -43.648 -19.669 -24.866  0.00  0.00    +0.000 A 
ATOM     11  C   UNL     1     -44.567 -18.935 -24.153  0.00  0.00    +0.000 A 
ATOM     12  C   UNL     1     -44.572 -18.887 -22.755  0.00  0.00    +0.000 A 
ATOM     13  C   UNL     1     -45.439 -18.322 -25.124  0.00  0.00    +0.000 C 
ATOM     14  O   UNL     1     -46.401 -17.549 -24.876  0.00  0.00    +0.000 OA
ATOM     15  O   UNL     1     -45.051 -18.694 -26.403  0.00  0.00    +0.000 OA
ATOM     16  C   UNL     1     -43.898 -19.542 -26.343  0.00  0.00    +0.000 C 
BRANCH   7  18
ATOM     17  C   UNL     1     -42.350 -20.011 -19.948  0.00  0.00    +0.000 C 
ATOM     18  O   UNL     1     -43.515 -19.634 -20.673  0.00  0.00    +0.000 OA
ENDBRANCH   7  18
BRANCH  12  19
ATOM     19  O   UNL     1     -45.551 -18.110 -22.116  0.00  0.00    +0.000 OA
ATOM     20  C   UNL     1     -45.342 -16.798 -21.612  0.00  0.00    +0.000 C 
ENDBRANCH  12  19
ENDBRANCH   1  16
BRANCH   2  21
ATOM     21  C   UNL     1     -42.769 -16.512 -26.543  0.00  0.00    +0.000 C 
ATOM     22  O   UNL     1     -42.565 -15.622 -25.673  0.00  0.00    +0.000 OA
ATOM     23  N   UNL     1     -43.738 -16.317 -27.585  0.00  0.00    +0.000 N 
ATOM     24  H   UNL     1     -43.893 -17.073 -28.196  0.00  0.00    +0.000 HD
BRANCH  23  25
ATOM     25  C   UNL     1     -44.500 -15.126 -27.821  0.00  0.00    +0.000 A 
ATOM     26  C   UNL     1     -45.419 -14.707 -26.848  0.00  0.00    +0.000 A 
ATOM     27  C   UNL     1     -46.170 -13.541 -27.037  0.00  0.00    +0.000 A 
ATOM     28  C   UNL     1     -46.008 -12.792 -28.205  0.00  0.00    +0.000 A 
ATOM     29  C   UNL     1     -45.081 -13.197 -29.177  0.00  0.00    +0.000 A 
ATOM     30  C   UNL     1     -44.341 -14.367 -28.993  0.00  0.00    +0.000 A 
ATOM     31  O   UNL     1     -44.903 -12.410 -30.318  0.00  0.00    +0.000 OA
ATOM     32  C   UNL     1     -45.403 -11.072 -30.367  0.00  0.00    +0.000 C 
ATOM     33  C   UNL     1     -46.783 -11.002 -29.709  0.00  0.00    +0.000 C 
ATOM     34  O   UNL     1     -46.749 -11.626 -28.420  0.00  0.00    +0.000 OA
ENDBRANCH  23  25
ENDBRANCH   2  21
TORSDOF 5
ENDMDL
MODEL 2
REMARK VINA RESULT:      -6.8      1.786      2.495
REMARK  Name = ZINC000009034026 ZINC09034026 PubChem-40911175
REMARK  5 active torsions:
REMARK  status: ('A' for Active; 'I' for Inactive)
REMARK    1  A    between atoms: N_1  and  C_16
REMARK    2  A    between atoms: C_2  and  C_21
REMARK    3  A    between atoms: C_7  and  O_18
REMARK    4  A    between atoms: C_12  and  O_19
REMARK    5  A    between atoms: N_23  and  C_25
REMARK                            x       y       z     vdW  Elec       q    Type
REMARK                         _______ _______ _______ _____ _____    ______ ____
ROOT
ATOM      1  N   UNL     1     -44.483 -17.544 -25.560  0.00  0.00    +0.000 N 
ATOM      2  C   UNL     1     -43.374 -16.599 -25.607  0.00  0.00    +0.000 C 
ATOM      3  C   UNL     1     -42.265 -17.279 -26.426  0.00  0.00    +0.000 C 
ATOM      4  C   UNL     1     -42.756 -18.680 -26.806  0.00  0.00    +0.000 C 
ATOM      5  C   UNL     1     -44.110 -18.735 -26.224  0.00  0.00    +0.000 C 
ATOM      6  O   UNL     1     -44.859 -19.744 -26.297  0.00  0.00    +0.000 OA
ENDROOT
BRANCH   1  16
ATOM      7  C   UNL     1     -44.708 -17.692 -20.509  0.00  0.00    +0.000 A 
ATOM      8  C   UNL     1     -44.488 -18.844 -21.302  0.00  0.00    +0.000 A 
ATOM      9  C   UNL     1     -44.765 -18.847 -22.677  0.00  0.00    +0.000 A 
ATOM     10  C   UNL     1     -45.261 -17.682 -23.250  0.00  0.00    +0.000 A 
ATOM     11  C   UNL     1     -45.488 -16.559 -22.490  0.00  0.00    +0.000 A 
ATOM     12  C   UNL     1     -45.227 -16.513 -21.116  0.00  0.00    +0.000 A 
ATOM     13  C   UNL     1     -46.030 -15.566 -23.383  0.00  0.00    +0.000 C 
ATOM     14  O   UNL     1     -46.349 -14.387 -23.078  0.00  0.00    +0.000 OA
ATOM     15  O   UNL     1     -46.136 -16.093 -24.662  0.00  0.00    +0.000 OA
ATOM     16  C   UNL     1     -45.649 -17.440 -24.683  0.00  0.00    +0.000 C 
BRANCH   7  18
ATOM     17  C   UNL     1     -43.169 -17.290 -18.607  0.00  0.00    +0.000 C 
ATOM     18  O   UNL     1     -44.416 -17.719 -19.141  0.00  0.00    +0.000 OA
ENDBRANCH   7  18
BRANCH  12  19
ATOM     19  O   UNL     1     -45.491 -15.321 -20.424  0.00  0.00    +0.000 OA
ATOM     20  C   UNL     1     -46.625 -15.098 -19.599  0.00  0.00    +0.000 C 
ENDBRANCH  12  19
ENDBRANCH   1  16
BRANCH   2  21
ATOM     21  C   UNL     1     -43.782 -15.324 -26.275  0.00  0.00    +0.000 C 
ATOM     22  O   UNL     1     -43.261 -14.240 -25.896  0.00  0.00    +0.000 OA
ATOM     23  N   UNL     1     -44.759 -15.346 -27.327  0.00  0.00    +0.000 N 
ATOM     24  H   UNL     1     -45.171 -16.216 -27.534  0.00  0.00    +0.000 HD
BRANCH  23  25
ATOM     25  C   UNL     1     -45.190 -14.222 -28.105  0.00  0.00    +0.000 A 
ATOM     26  C   UNL     1     -46.397 -13.591 -27.772  0.00  0.00    +0.000 A 
ATOM     27  C   UNL     1     -46.843 -12.482 -28.500  0.00  0.00    +0.000 A 
ATOM     28  C   UNL     1     -46.083 -12.002 -29.570  0.00  0.00    +0.000 A 
ATOM     29  C   UNL     1     -44.868 -12.619 -29.902  0.00  0.00    +0.000 A 
ATOM     30  C   UNL     1     -44.430 -13.733 -29.182  0.00  0.00    +0.000 A 
ATOM     31  O   UNL     1     -44.102 -12.097 -30.947  0.00  0.00    +0.000 OA
ATOM     32  C   UNL     1     -44.370 -10.793 -31.468  0.00  0.00    +0.000 C 
ATOM     33  C   UNL     1     -45.881 -10.564 -31.559  0.00  0.00    +0.000 C 
ATOM     34  O   UNL     1     -46.508 -10.899 -30.316  0.00  0.00    +0.000 OA
ENDBRANCH  23  25
ENDBRANCH   2  21
TORSDOF 5
ENDMDL
MODEL 3
REMARK VINA RESULT:      -6.8      2.153      7.494
REMARK  Name = ZINC000009034026 ZINC09034026 PubChem-40911175
REMARK  5 active torsions:
REMARK  status: ('A' for Active; 'I' for Inactive)
REMARK    1  A    between atoms: N_1  and  C_16
REMARK    2  A    between atoms: C_2  and  C_21
REMARK    3  A    between atoms: C_7  and  O_18
REMARK    4  A    between atoms: C_12  and  O_19
REMARK    5  A    between atoms: N_23  and  C_25
REMARK                            x       y       z     vdW  Elec       q    Type
REMARK                         _______ _______ _______ _____ _____    ______ ____
ROOT
ATOM      1  N   UNL     1     -43.043 -16.749 -26.149  0.00  0.00    +0.000 N 
ATOM      2  C   UNL     1     -44.309 -17.467 -26.246  0.00  0.00    +0.000 C 
ATOM      3  C   UNL     1     -43.947 -18.947 -26.450  0.00  0.00    +0.000 C 
ATOM      4  C   UNL     1     -42.420 -19.051 -26.524  0.00  0.00    +0.000 C 
ATOM      5  C   UNL     1     -41.976 -17.657 -26.334  0.00  0.00    +0.000 C 
ATOM      6  O   UNL     1     -40.768 -17.303 -26.349  0.00  0.00    +0.000 OA
ENDROOT
BRANCH   1  16
ATOM      7  C   UNL     1     -46.046 -13.294 -28.301  0.00  0.00    +0.000 A 
ATOM      8  C   UNL     1     -45.204 -14.152 -29.048  0.00  0.00    +0.000 A 
ATOM      9  C   UNL     1     -44.149 -14.849 -28.442  0.00  0.00    +0.000 A 
ATOM     10  C   UNL     1     -43.948 -14.680 -27.077  0.00  0.00    +0.000 A 
ATOM     11  C   UNL     1     -44.753 -13.843 -26.341  0.00  0.00    +0.000 A 
ATOM     12  C   UNL     1     -45.815 -13.129 -26.906  0.00  0.00    +0.000 A 
ATOM     13  C   UNL     1     -44.248 -13.876 -24.991  0.00  0.00    +0.000 C 
ATOM     14  O   UNL     1     -44.727 -13.261 -24.003  0.00  0.00    +0.000 OA
ATOM     15  O   UNL     1     -43.147 -14.717 -24.923  0.00  0.00    +0.000 OA
ATOM     16  C   UNL     1     -42.887 -15.296 -26.207  0.00  0.00    +0.000 C 
BRANCH   7  18
ATOM     17  C   UNL     1     -46.908 -11.408 -29.660  0.00  0.00    +0.000 C 
ATOM     18  O   UNL     1     -47.094 -12.618 -28.935  0.00  0.00    +0.000 OA
ENDBRANCH   7  18
BRANCH  12  19
ATOM     19  O   UNL     1     -46.582 -12.298 -26.073  0.00  0.00    +0.000 OA
ATOM     20  C   UNL     1     -46.405 -10.895 -25.946  0.00  0.00    +0.000 C 
ENDBRANCH  12  19
ENDBRANCH   1  16
BRANCH   2  21
ATOM     21  C   UNL     1     -45.110 -17.315 -24.992  0.00  0.00    +0.000 C 
ATOM     22  O   UNL     1     -46.367 -17.251 -25.072  0.00  0.00    +0.000 OA
ATOM     23  N   UNL     1     -44.447 -17.238 -23.720  0.00  0.00    +0.000 N 
ATOM     24  H   UNL     1     -43.462 -17.234 -23.731  0.00  0.00    +0.000 HD
BRANCH  23  25
ATOM     25  C   UNL     1     -45.081 -17.168 -22.437  0.00  0.00    +0.000 A 
ATOM     26  C   UNL     1     -45.404 -18.361 -21.775  0.00  0.00    +0.000 A 
ATOM     27  C   UNL     1     -46.010 -18.332 -20.514  0.00  0.00    +0.000 A 
ATOM     28  C   UNL     1     -46.303 -17.105 -19.912  0.00  0.00    +0.000 A 
ATOM     29  C   UNL     1     -45.971 -15.907 -20.562  0.00  0.00    +0.000 A 
ATOM     30  C   UNL     1     -45.376 -15.938 -21.825  0.00  0.00    +0.000 A 
ATOM     31  O   UNL     1     -46.233 -14.691 -19.924  0.00  0.00    +0.000 OA
ATOM     32  C   UNL     1     -46.533 -14.650 -18.527  0.00  0.00    +0.000 C 
ATOM     33  C   UNL     1     -47.448 -15.819 -18.152  0.00  0.00    +0.000 C 
ATOM     34  O   UNL     1     -46.913 -17.048 -18.655  0.00  0.00    +0.000 OA
ENDBRANCH  23  25
ENDBRANCH   2  21
TORSDOF 5
ENDMDL
