MODEL 1
REMARK VINA RESULT:      -6.9      0.000      0.000
REMARK  Name = ZINC000031808027
REMARK  1 active torsions:
REMARK  status: ('A' for Active; 'I' for Inactive)
REMARK    1  A    between atoms: C_7  and  C_24
REMARK                            x       y       z     vdW  Elec       q    Type
REMARK                         _______ _______ _______ _____ _____    ______ ____
ROOT
ATOM      1  C   UNL     1     -47.409  -4.470 -26.207  0.00  0.00    +0.000 C 
ATOM      2  C   UNL     1     -46.944  -4.717 -27.600  0.00  0.00    +0.000 A 
ATOM      3  N   UNL     1     -46.791  -3.742 -28.513  0.00  0.00    +0.000 NA
ATOM      4  N   UNL     1     -46.366  -4.305 -29.632  0.00  0.00    +0.000 N 
ATOM      5  C   UNL     1     -46.209  -5.636 -29.444  0.00  0.00    +0.000 A 
ATOM      6  C   UNL     1     -46.595  -5.943 -28.141  0.00  0.00    +0.000 A 
ATOM      7  C   UNL     1     -46.601  -7.238 -27.376  0.00  0.00    +0.000 C 
ATOM      8  S   UNL     1     -46.883  -8.732 -28.378  0.00  0.00    +0.000 S 
ATOM      9  C   UNL     1     -45.248  -8.648 -29.144  0.00  0.00    +0.000 C 
ATOM     10  C   UNL     1     -45.324  -7.886 -30.414  0.00  0.00    +0.000 C 
ATOM     11  O   UNL     1     -45.015  -8.472 -31.482  0.00  0.00    +0.000 OA
ATOM     12  N   UNL     1     -45.693  -6.505 -30.466  0.00  0.00    +0.000 N 
ATOM     13  H   UNL     1     -45.575  -6.080 -31.348  0.00  0.00    +0.000 HD
ATOM     14  C   UNL     1     -46.067  -3.547 -30.813  0.00  0.00    +0.000 A 
ATOM     15  N   UNL     1     -45.494  -2.310 -30.706  0.00  0.00    +0.000 NA
ATOM     16  C   UNL     1     -45.223  -1.548 -31.813  0.00  0.00    +0.000 A 
ATOM     17  N   UNL     1     -45.536  -2.003 -33.062  0.00  0.00    +0.000 NA
ATOM     18  C   UNL     1     -46.117  -3.222 -33.170  0.00  0.00    +0.000 A 
ATOM     19  N   UNL     1     -46.545  -3.805 -34.296  0.00  0.00    +0.000 N 
ATOM     20  C   UNL     1     -47.094  -4.962 -33.835  0.00  0.00    +0.000 A 
ATOM     21  N   UNL     1     -47.026  -5.105 -32.483  0.00  0.00    +0.000 NA
ATOM     22  C   UNL     1     -46.392  -3.990 -32.096  0.00  0.00    +0.000 A 
ATOM     23  H   UNL     1     -46.478  -3.481 -35.223  0.00  0.00    +0.000 HD
ENDROOT
BRANCH   7  24
ATOM     24  C   UNL     1     -45.491  -7.371 -26.366  0.00  0.00    +0.000 A 
ATOM     25  C   UNL     1     -44.178  -6.999 -26.699  0.00  0.00    +0.000 A 
ATOM     26  C   UNL     1     -43.148  -7.118 -25.763  0.00  0.00    +0.000 A 
ATOM     27  C   UNL     1     -43.421  -7.608 -24.486  0.00  0.00    +0.000 A 
ATOM     28  C   UNL     1     -44.723  -7.978 -24.142  0.00  0.00    +0.000 A 
ATOM     29  C   UNL     1     -45.760  -7.862 -25.074  0.00  0.00    +0.000 A 
ATOM     30 CL   UNL     1     -47.381  -8.334 -24.589  0.00  0.00    +0.000 Cl
ENDBRANCH   7  24
TORSDOF 1
ENDMDL
MODEL 2
REMARK VINA RESULT:      -6.6      4.873      7.076
REMARK  Name = ZINC000031808027
REMARK  1 active torsions:
REMARK  status: ('A' for Active; 'I' for Inactive)
REMARK    1  A    between atoms: C_7  and  C_24
REMARK                            x       y       z     vdW  Elec       q    Type
REMARK                         _______ _______ _______ _____ _____    ______ ____
ROOT
ATOM      1  C   UNL     1     -47.124  -3.413 -33.714  0.00  0.00    +0.000 C 
ATOM      2  C   UNL     1     -46.460  -4.745 -33.766  0.00  0.00    +0.000 A 
ATOM      3  N   UNL     1     -46.773  -5.694 -34.666  0.00  0.00    +0.000 NA
ATOM      4  N   UNL     1     -45.997  -6.738 -34.431  0.00  0.00    +0.000 N 
ATOM      5  C   UNL     1     -45.156  -6.465 -33.407  0.00  0.00    +0.000 A 
ATOM      6  C   UNL     1     -45.442  -5.185 -32.937  0.00  0.00    +0.000 A 
ATOM      7  C   UNL     1     -44.815  -4.353 -31.852  0.00  0.00    +0.000 C 
ATOM      8  S   UNL     1     -44.127  -5.291 -30.451  0.00  0.00    +0.000 S 
ATOM      9  C   UNL     1     -42.738  -5.916 -31.424  0.00  0.00    +0.000 C 
ATOM     10  C   UNL     1     -43.088  -7.228 -32.019  0.00  0.00    +0.000 C 
ATOM     11  O   UNL     1     -42.401  -8.232 -31.701  0.00  0.00    +0.000 OA
ATOM     12  N   UNL     1     -44.147  -7.388 -32.968  0.00  0.00    +0.000 N 
ATOM     13  H   UNL     1     -44.191  -8.279 -33.388  0.00  0.00    +0.000 HD
ATOM     14  C   UNL     1     -46.043  -7.930 -35.230  0.00  0.00    +0.000 A 
ATOM     15  N   UNL     1     -46.257  -7.843 -36.578  0.00  0.00    +0.000 NA
ATOM     16  C   UNL     1     -46.336  -8.962 -37.365  0.00  0.00    +0.000 A 
ATOM     17  N   UNL     1     -46.218 -10.207 -36.814  0.00  0.00    +0.000 NA
ATOM     18  C   UNL     1     -46.021 -10.297 -35.477  0.00  0.00    +0.000 A 
ATOM     19  N   UNL     1     -45.940 -11.421 -34.756  0.00  0.00    +0.000 N 
ATOM     20  C   UNL     1     -45.809 -10.946 -33.487  0.00  0.00    +0.000 A 
ATOM     21  N   UNL     1     -45.813  -9.588 -33.404  0.00  0.00    +0.000 NA
ATOM     22  C   UNL     1     -45.938  -9.209 -34.683  0.00  0.00    +0.000 A 
ATOM     23  H   UNL     1     -45.968 -12.356 -35.065  0.00  0.00    +0.000 HD
ENDROOT
BRANCH   7  24
ATOM     24  C   UNL     1     -43.925  -3.245 -32.352  0.00  0.00    +0.000 A 
ATOM     25  C   UNL     1     -42.872  -3.523 -33.238  0.00  0.00    +0.000 A 
ATOM     26  C   UNL     1     -42.047  -2.497 -33.705  0.00  0.00    +0.000 A 
ATOM     27  C   UNL     1     -42.269  -1.183 -33.292  0.00  0.00    +0.000 A 
ATOM     28  C   UNL     1     -43.315  -0.893 -32.413  0.00  0.00    +0.000 A 
ATOM     29  C   UNL     1     -44.145  -1.916 -31.941  0.00  0.00    +0.000 A 
ATOM     30 CL   UNL     1     -45.451  -1.496 -30.843  0.00  0.00    +0.000 Cl
ENDBRANCH   7  24
TORSDOF 1
ENDMDL
MODEL 3
REMARK VINA RESULT:      -6.5      2.923      4.003
REMARK  Name = ZINC000031808027
REMARK  1 active torsions:
REMARK  status: ('A' for Active; 'I' for Inactive)
REMARK    1  A    between atoms: C_7  and  C_24
REMARK                            x       y       z     vdW  Elec       q    Type
REMARK                         _______ _______ _______ _____ _____    ______ ____
ROOT
ATOM      1  C   UNL     1     -42.630  -6.757 -27.461  0.00  0.00    +0.000 C 
ATOM      2  C   UNL     1     -43.091  -6.097 -28.714  0.00  0.00    +0.000 A 
ATOM      3  N   UNL     1     -42.263  -5.737 -29.709  0.00  0.00    +0.000 NA
ATOM      4  N   UNL     1     -42.997  -5.186 -30.661  0.00  0.00    +0.000 N 
ATOM      5  C   UNL     1     -44.302  -5.214 -30.308  0.00  0.00    +0.000 A 
ATOM      6  C   UNL     1     -44.400  -5.781 -29.038  0.00  0.00    +0.000 A 
ATOM      7  C   UNL     1     -45.587  -6.094 -28.169  0.00  0.00    +0.000 C 
ATOM      8  S   UNL     1     -47.007  -4.970 -28.358  0.00  0.00    +0.000 S 
ATOM      9  C   UNL     1     -47.435  -5.625 -29.988  0.00  0.00    +0.000 C 
ATOM     10  C   UNL     1     -46.770  -4.824 -31.044  0.00  0.00    +0.000 C 
ATOM     11  O   UNL     1     -47.491  -4.221 -31.879  0.00  0.00    +0.000 OA
ATOM     12  N   UNL     1     -45.348  -4.745 -31.174  0.00  0.00    +0.000 N 
ATOM     13  H   UNL     1     -45.035  -4.295 -31.993  0.00  0.00    +0.000 HD
ATOM     14  C   UNL     1     -42.434  -4.713 -31.894  0.00  0.00    +0.000 A 
ATOM     15  N   UNL     1     -41.402  -5.390 -32.481  0.00  0.00    +0.000 NA
ATOM     16  C   UNL     1     -40.823  -4.949 -33.642  0.00  0.00    +0.000 A 
ATOM     17  N   UNL     1     -41.257  -3.799 -34.240  0.00  0.00    +0.000 NA
ATOM     18  C   UNL     1     -42.269  -3.118 -33.653  0.00  0.00    +0.000 A 
ATOM     19  N   UNL     1     -42.786  -1.951 -34.056  0.00  0.00    +0.000 N 
ATOM     20  C   UNL     1     -43.709  -1.690 -33.090  0.00  0.00    +0.000 A 
ATOM     21  N   UNL     1     -43.773  -2.640 -32.118  0.00  0.00    +0.000 NA
ATOM     22  C   UNL     1     -42.856  -3.534 -32.511  0.00  0.00    +0.000 A 
ATOM     23  H   UNL     1     -42.556  -1.416 -34.850  0.00  0.00    +0.000 HD
ENDROOT
BRANCH   7  24
ATOM     24  C   UNL     1     -45.955  -7.554 -28.118  0.00  0.00    +0.000 A 
ATOM     25  C   UNL     1     -45.799  -8.367 -29.252  0.00  0.00    +0.000 A 
ATOM     26  C   UNL     1     -46.136  -9.721 -29.206  0.00  0.00    +0.000 A 
ATOM     27  C   UNL     1     -46.631 -10.276 -28.025  0.00  0.00    +0.000 A 
ATOM     28  C   UNL     1     -46.788  -9.478 -26.890  0.00  0.00    +0.000 A 
ATOM     29  C   UNL     1     -46.452  -8.120 -26.929  0.00  0.00    +0.000 A 
ATOM     30 CL   UNL     1     -46.662  -7.162 -25.470  0.00  0.00    +0.000 Cl
ENDBRANCH   7  24
TORSDOF 1
ENDMDL
