MODEL 1
REMARK VINA RESULT:      -7.4      0.000      0.000
REMARK  Name = ZINC000006281134 ZINC06281134 PubChem-40601604
REMARK  8 active torsions:
REMARK  status: ('A' for Active; 'I' for Inactive)
REMARK    1  A    between atoms: C_5  and  C_6
REMARK    2  A    between atoms: C_7  and  C_8
REMARK    3  A    between atoms: C_7  and  N_31
REMARK    4  A    between atoms: C_9  and  C_10
REMARK    5  A    between atoms: C_9  and  N_33
REMARK    6  A    between atoms: C_11  and  C_12
REMARK    7  A    between atoms: C_11  and  N_34
REMARK    8  A    between atoms: C_16  and  N_33
REMARK                            x       y       z     vdW  Elec       q    Type
REMARK                         _______ _______ _______ _____ _____    ______ ____
ROOT
ATOM      1  C   UNL     1     -44.328 -18.543 -25.585  0.00  0.00    +0.000 C 
ATOM      2  O   UNL     1     -45.493 -18.799 -25.990  0.00  0.00    +0.000 OA
ATOM      3  N   UNL     1     -43.705 -17.279 -25.896  0.00  0.00    +0.000 N 
ENDROOT
BRANCH   3   4
ATOM      4  C   UNL     1     -44.477 -16.116 -26.273  0.00  0.00    +0.000 A 
ATOM      5  C   UNL     1     -44.401 -15.585 -27.570  0.00  0.00    +0.000 A 
ATOM      6  C   UNL     1     -45.163 -14.471 -27.921  0.00  0.00    +0.000 A 
ATOM      7  C   UNL     1     -45.082 -13.927 -29.206  0.00  0.00    +0.000 A 
ATOM      8  C   UNL     1     -45.847 -12.804 -29.536  0.00  0.00    +0.000 A 
ATOM      9  C   UNL     1     -46.691 -12.224 -28.582  0.00  0.00    +0.000 A 
ATOM     10  C   UNL     1     -46.776 -12.765 -27.294  0.00  0.00    +0.000 A 
ATOM     11  C   UNL     1     -46.013 -13.887 -26.960  0.00  0.00    +0.000 A 
ATOM     12  C   UNL     1     -45.347 -15.504 -25.352  0.00  0.00    +0.000 A 
ATOM     13  N   UNL     1     -46.082 -14.415 -25.710  0.00  0.00    +0.000 NA
ENDBRANCH   3   4
BRANCH   1  14
ATOM     14  C   UNL     1     -43.581 -19.598 -24.828  0.00  0.00    +0.000 C 
BRANCH  14  18
ATOM     15  C   UNL     1     -44.603 -18.878 -21.546  0.00  0.00    +0.000 A 
ATOM     16  N   UNL     1     -43.691 -19.837 -21.287  0.00  0.00    +0.000 NA
ATOM     17  N   UNL     1     -43.218 -20.183 -22.473  0.00  0.00    +0.000 NA
ATOM     18  N   UNL     1     -43.816 -19.456 -23.400  0.00  0.00    +0.000 N 
ATOM     19  N   UNL     1     -44.698 -18.630 -22.867  0.00  0.00    +0.000 NA
BRANCH  15  24
ATOM     20  C   UNL     1     -45.976 -15.441 -18.356  0.00  0.00    +0.000 C 
ATOM     21  C   UNL     1     -45.987 -16.702 -19.141  0.00  0.00    +0.000 A 
ATOM     22  C   UNL     1     -46.946 -17.691 -19.042  0.00  0.00    +0.000 A 
ATOM     23  C   UNL     1     -46.557 -18.665 -19.948  0.00  0.00    +0.000 A 
ATOM     24  C   UNL     1     -45.391 -18.187 -20.522  0.00  0.00    +0.000 A 
ATOM     25  O   UNL     1     -45.075 -17.018 -20.024  0.00  0.00    +0.000 OA
ENDBRANCH  15  24
ENDBRANCH  14  18
ENDBRANCH   1  14
BRANCH   3  26
ATOM     26  C   UNL     1     -42.244 -17.187 -25.870  0.00  0.00    +0.000 C 
BRANCH  26  27
ATOM     27  C   UNL     1     -41.654 -17.986 -26.985  0.00  0.00    +0.000 C 
ATOM     28  O   UNL     1     -40.865 -18.933 -26.730  0.00  0.00    +0.000 OA
ATOM     29  N   UNL     1     -41.961 -17.639 -28.335  0.00  0.00    +0.000 NA
BRANCH  29  30
ATOM     30  C   UNL     1     -41.394 -18.359 -29.464  0.00  0.00    +0.000 C 
BRANCH  30  31
ATOM     31  C   UNL     1     -42.375 -19.415 -29.942  0.00  0.00    +0.000 C 
ATOM     32  C   UNL     1     -41.817 -20.792 -29.667  0.00  0.00    +0.000 C 
ATOM     33  C   UNL     1     -42.182 -21.579 -30.890  0.00  0.00    +0.000 C 
ATOM     34  C   UNL     1     -42.921 -20.585 -31.756  0.00  0.00    +0.000 C 
ATOM     35  O   UNL     1     -42.588 -19.293 -31.326  0.00  0.00    +0.000 OA
ENDBRANCH  30  31
ENDBRANCH  29  30
ENDBRANCH  26  27
ENDBRANCH   3  26
TORSDOF 8
ENDMDL
MODEL 2
REMARK VINA RESULT:      -7.3      8.751     13.352
REMARK  Name = ZINC000006281134 ZINC06281134 PubChem-40601604
REMARK  8 active torsions:
REMARK  status: ('A' for Active; 'I' for Inactive)
REMARK    1  A    between atoms: C_5  and  C_6
REMARK    2  A    between atoms: C_7  and  C_8
REMARK    3  A    between atoms: C_7  and  N_31
REMARK    4  A    between atoms: C_9  and  C_10
REMARK    5  A    between atoms: C_9  and  N_33
REMARK    6  A    between atoms: C_11  and  C_12
REMARK    7  A    between atoms: C_11  and  N_34
REMARK    8  A    between atoms: C_16  and  N_33
REMARK                            x       y       z     vdW  Elec       q    Type
REMARK                         _______ _______ _______ _____ _____    ______ ____
ROOT
ATOM      1  C   UNL     1     -44.644  -7.123 -27.899  0.00  0.00    +0.000 C 
ATOM      2  O   UNL     1     -43.660  -6.788 -27.187  0.00  0.00    +0.000 OA
ATOM      3  N   UNL     1     -45.990  -6.994 -27.396  0.00  0.00    +0.000 N 
ENDROOT
BRANCH   3   4
ATOM      4  C   UNL     1     -46.317  -6.110 -26.298  0.00  0.00    +0.000 A 
ATOM      5  C   UNL     1     -46.712  -4.783 -26.529  0.00  0.00    +0.000 A 
ATOM      6  C   UNL     1     -47.038  -3.949 -25.460  0.00  0.00    +0.000 A 
ATOM      7  C   UNL     1     -47.417  -2.622 -25.680  0.00  0.00    +0.000 A 
ATOM      8  C   UNL     1     -47.729  -1.798 -24.594  0.00  0.00    +0.000 A 
ATOM      9  C   UNL     1     -47.662  -2.300 -23.289  0.00  0.00    +0.000 A 
ATOM     10  C   UNL     1     -47.282  -3.629 -23.064  0.00  0.00    +0.000 A 
ATOM     11  C   UNL     1     -46.968  -4.455 -24.146  0.00  0.00    +0.000 A 
ATOM     12  C   UNL     1     -46.274  -6.571 -24.971  0.00  0.00    +0.000 A 
ATOM     13  N   UNL     1     -46.592  -5.743 -23.937  0.00  0.00    +0.000 NA
ENDBRANCH   3   4
BRANCH   1  14
ATOM     14  C   UNL     1     -44.387  -7.711 -29.253  0.00  0.00    +0.000 C 
BRANCH  14  18
ATOM     15  C   UNL     1     -44.504  -4.870 -31.314  0.00  0.00    +0.000 A 
ATOM     16  N   UNL     1     -44.848  -5.812 -32.217  0.00  0.00    +0.000 NA
ATOM     17  N   UNL     1     -44.850  -6.947 -31.537  0.00  0.00    +0.000 NA
ATOM     18  N   UNL     1     -44.530  -6.693 -30.281  0.00  0.00    +0.000 N 
ATOM     19  N   UNL     1     -44.295  -5.406 -30.096  0.00  0.00    +0.000 NA
BRANCH  15  24
ATOM     20  C   UNL     1     -42.596  -0.680 -32.952  0.00  0.00    +0.000 C 
ATOM     21  C   UNL     1     -43.552  -1.629 -32.324  0.00  0.00    +0.000 A 
ATOM     22  C   UNL     1     -44.774  -1.282 -31.780  0.00  0.00    +0.000 A 
ATOM     23  C   UNL     1     -45.315  -2.471 -31.317  0.00  0.00    +0.000 A 
ATOM     24  C   UNL     1     -44.375  -3.442 -31.616  0.00  0.00    +0.000 A 
ATOM     25  O   UNL     1     -43.337  -2.914 -32.214  0.00  0.00    +0.000 OA
ENDBRANCH  15  24
ENDBRANCH  14  18
ENDBRANCH   1  14
BRANCH   3  26
ATOM     26  C   UNL     1     -47.046  -7.817 -27.988  0.00  0.00    +0.000 C 
BRANCH  26  27
ATOM     27  C   UNL     1     -47.196  -9.094 -27.229  0.00  0.00    +0.000 C 
ATOM     28  O   UNL     1     -47.756  -9.092 -26.101  0.00  0.00    +0.000 OA
ATOM     29  N   UNL     1     -46.662 -10.299 -27.774  0.00  0.00    +0.000 NA
BRANCH  29  30
ATOM     30  C   UNL     1     -46.748 -11.569 -27.069  0.00  0.00    +0.000 C 
BRANCH  30  31
ATOM     31  C   UNL     1     -46.737 -12.711 -28.069  0.00  0.00    +0.000 C 
ATOM     32  C   UNL     1     -45.457 -13.501 -27.927  0.00  0.00    +0.000 C 
ATOM     33  C   UNL     1     -45.067 -13.811 -29.342  0.00  0.00    +0.000 C 
ATOM     34  C   UNL     1     -46.162 -13.177 -30.168  0.00  0.00    +0.000 C 
ATOM     35  O   UNL     1     -46.807 -12.213 -29.381  0.00  0.00    +0.000 OA
ENDBRANCH  30  31
ENDBRANCH  29  30
ENDBRANCH  26  27
ENDBRANCH   3  26
TORSDOF 8
ENDMDL
MODEL 3
REMARK VINA RESULT:      -7.3      9.346     14.045
REMARK  Name = ZINC000006281134 ZINC06281134 PubChem-40601604
REMARK  8 active torsions:
REMARK  status: ('A' for Active; 'I' for Inactive)
REMARK    1  A    between atoms: C_5  and  C_6
REMARK    2  A    between atoms: C_7  and  C_8
REMARK    3  A    between atoms: C_7  and  N_31
REMARK    4  A    between atoms: C_9  and  C_10
REMARK    5  A    between atoms: C_9  and  N_33
REMARK    6  A    between atoms: C_11  and  C_12
REMARK    7  A    between atoms: C_11  and  N_34
REMARK    8  A    between atoms: C_16  and  N_33
REMARK                            x       y       z     vdW  Elec       q    Type
REMARK                         _______ _______ _______ _____ _____    ______ ____
ROOT
ATOM      1  C   UNL     1     -44.868  -6.490 -29.347  0.00  0.00    +0.000 C 
ATOM      2  O   UNL     1     -43.927  -6.213 -28.556  0.00  0.00    +0.000 OA
ATOM      3  N   UNL     1     -46.242  -6.310 -28.943  0.00  0.00    +0.000 N 
ENDROOT
BRANCH   3   4
ATOM      4  C   UNL     1     -46.612  -5.432 -27.854  0.00  0.00    +0.000 A 
ATOM      5  C   UNL     1     -46.485  -5.843 -26.518  0.00  0.00    +0.000 A 
ATOM      6  C   UNL     1     -46.832  -4.980 -25.480  0.00  0.00    +0.000 A 
ATOM      7  C   UNL     1     -46.723  -5.386 -24.147  0.00  0.00    +0.000 A 
ATOM      8  C   UNL     1     -47.087  -4.510 -23.120  0.00  0.00    +0.000 A 
ATOM      9  C   UNL     1     -47.561  -3.228 -23.425  0.00  0.00    +0.000 A 
ATOM     10  C   UNL     1     -47.672  -2.817 -24.758  0.00  0.00    +0.000 A 
ATOM     11  C   UNL     1     -47.311  -3.690 -25.787  0.00  0.00    +0.000 A 
ATOM     12  C   UNL     1     -47.083  -4.133 -28.110  0.00  0.00    +0.000 A 
ATOM     13  N   UNL     1     -47.422  -3.303 -27.084  0.00  0.00    +0.000 NA
ENDBRANCH   3   4
BRANCH   1  14
ATOM     14  C   UNL     1     -44.535  -7.065 -30.690  0.00  0.00    +0.000 C 
BRANCH  14  18
ATOM     15  C   UNL     1     -43.700  -4.154 -32.468  0.00  0.00    +0.000 A 
ATOM     16  N   UNL     1     -43.789  -5.022 -33.496  0.00  0.00    +0.000 NA
ATOM     17  N   UNL     1     -44.119  -6.175 -32.938  0.00  0.00    +0.000 NA
ATOM     18  N   UNL     1     -44.231  -6.001 -31.633  0.00  0.00    +0.000 N 
ATOM     19  N   UNL     1     -43.970  -4.752 -31.291  0.00  0.00    +0.000 NA
BRANCH  15  24
ATOM     20  C   UNL     1     -41.160   0.008 -32.147  0.00  0.00    +0.000 C 
ATOM     21  C   UNL     1     -42.261  -0.935 -32.471  0.00  0.00    +0.000 A 
ATOM     22  C   UNL     1     -43.439  -0.591 -33.107  0.00  0.00    +0.000 A 
ATOM     23  C   UNL     1     -44.159  -1.772 -33.199  0.00  0.00    +0.000 A 
ATOM     24  C   UNL     1     -43.358  -2.736 -32.609  0.00  0.00    +0.000 A 
ATOM     25  O   UNL     1     -42.237  -2.211 -32.185  0.00  0.00    +0.000 OA
ENDBRANCH  15  24
ENDBRANCH  14  18
ENDBRANCH   1  14
BRANCH   3  26
ATOM     26  C   UNL     1     -47.285  -7.073 -29.630  0.00  0.00    +0.000 C 
BRANCH  26  27
ATOM     27  C   UNL     1     -47.276  -8.494 -29.171  0.00  0.00    +0.000 C 
ATOM     28  O   UNL     1     -47.403  -8.759 -27.946  0.00  0.00    +0.000 OA
ATOM     29  N   UNL     1     -47.079  -9.537 -30.124  0.00  0.00    +0.000 NA
BRANCH  29  30
ATOM     30  C   UNL     1     -47.029 -10.938 -29.734  0.00  0.00    +0.000 C 
BRANCH  30  31
ATOM     31  C   UNL     1     -45.720 -11.551 -30.197  0.00  0.00    +0.000 C 
ATOM     32  C   UNL     1     -45.753 -13.046 -29.985  0.00  0.00    +0.000 C 
ATOM     33  C   UNL     1     -44.375 -13.371 -29.489  0.00  0.00    +0.000 C 
ATOM     34  C   UNL     1     -43.673 -12.033 -29.467  0.00  0.00    +0.000 C 
ATOM     35  O   UNL     1     -44.646 -11.024 -29.461  0.00  0.00    +0.000 OA
ENDBRANCH  30  31
ENDBRANCH  29  30
ENDBRANCH  26  27
ENDBRANCH   3  26
TORSDOF 8
ENDMDL
