MODEL 1
REMARK VINA RESULT:      -6.4      0.000      0.000
REMARK  Name = ZINC000032740599 ZINC32740599 CSC026941728 MCULE-1168912559 MolPort-005-697-480 PubChem-39966225
REMARK  4 active torsions:
REMARK  status: ('A' for Active; 'I' for Inactive)
REMARK    1  A    between atoms: N_1  and  C_22
REMARK    2  A    between atoms: C_2  and  C_5
REMARK    3  A    between atoms: C_17  and  S_24
REMARK    4  A    between atoms: S_24  and  N_28
REMARK                            x       y       z     vdW  Elec       q    Type
REMARK                         _______ _______ _______ _____ _____    ______ ____
ROOT
ATOM      1  N   UNL     1     -44.962 -16.057 -21.489  0.00  0.00    +0.000 N 
ATOM      2  C   UNL     1     -45.558 -16.014 -22.795  0.00  0.00    +0.000 C 
ATOM      3  O   UNL     1     -46.399 -15.110 -23.043  0.00  0.00    +0.000 OA
ATOM      4  H   UNL     1     -44.791 -15.193 -21.046  0.00  0.00    +0.000 HD
ENDROOT
BRANCH   2   5
ATOM      5  C   UNL     1     -45.178 -16.962 -23.863  0.00  0.00    +0.000 A 
ATOM      6  C   UNL     1     -45.888 -18.159 -24.045  0.00  0.00    +0.000 A 
ATOM      7  C   UNL     1     -45.518 -19.060 -25.049  0.00  0.00    +0.000 A 
ATOM      8  C   UNL     1     -44.428 -18.773 -25.872  0.00  0.00    +0.000 A 
ATOM      9  N   UNL     1     -44.056 -19.635 -26.852  0.00  0.00    +0.000 NA
ATOM     10  C   UNL     1     -42.993 -19.369 -27.659  0.00  0.00    +0.000 A 
ATOM     11  C   UNL     1     -42.627 -20.350 -28.721  0.00  0.00    +0.000 C 
ATOM     12  C   UNL     1     -42.266 -18.179 -27.473  0.00  0.00    +0.000 A 
ATOM     13  C   UNL     1     -41.092 -17.840 -28.329  0.00  0.00    +0.000 C 
ATOM     14  N   UNL     1     -42.639 -17.316 -26.490  0.00  0.00    +0.000 NA
ATOM     15  C   UNL     1     -43.701 -17.582 -25.686  0.00  0.00    +0.000 A 
ATOM     16  C   UNL     1     -44.073 -16.684 -24.683  0.00  0.00    +0.000 A 
ENDBRANCH   2   5
BRANCH   1  22
ATOM     17  C   UNL     1     -43.131 -19.168 -20.476  0.00  0.00    +0.000 A 
ATOM     18  C   UNL     1     -43.914 -19.599 -19.403  0.00  0.00    +0.000 A 
ATOM     19  C   UNL     1     -45.037 -18.864 -19.016  0.00  0.00    +0.000 A 
ATOM     20  C   UNL     1     -45.382 -17.691 -19.697  0.00  0.00    +0.000 A 
ATOM     21  C   UNL     1     -46.588 -16.933 -19.259  0.00  0.00    +0.000 C 
ATOM     22  C   UNL     1     -44.592 -17.244 -20.771  0.00  0.00    +0.000 A 
ATOM     23  C   UNL     1     -43.477 -18.001 -21.163  0.00  0.00    +0.000 A 
BRANCH  17  24
ATOM     24  S   UNL     1     -41.722 -20.092 -20.970  0.00  0.00    +0.000 S 
ATOM     25  O   UNL     1     -40.768 -19.193 -21.710  0.00  0.00    +0.000 OA
ATOM     26  O   UNL     1     -41.032 -20.623 -19.744  0.00  0.00    +0.000 OA
BRANCH  24  28
ATOM     27  C   UNL     1     -42.647 -20.861 -23.255  0.00  0.00    +0.000 C 
ATOM     28  N   UNL     1     -42.212 -21.413 -21.983  0.00  0.00    +0.000 NA
ATOM     29  C   UNL     1     -41.034 -22.218 -22.259  0.00  0.00    +0.000 C 
ENDBRANCH  24  28
ENDBRANCH  17  24
ENDBRANCH   1  22
TORSDOF 4
ENDMDL
MODEL 2
REMARK VINA RESULT:      -6.4      3.179      7.375
REMARK  Name = ZINC000032740599 ZINC32740599 CSC026941728 MCULE-1168912559 MolPort-005-697-480 PubChem-39966225
REMARK  4 active torsions:
REMARK  status: ('A' for Active; 'I' for Inactive)
REMARK    1  A    between atoms: N_1  and  C_22
REMARK    2  A    between atoms: C_2  and  C_5
REMARK    3  A    between atoms: C_17  and  S_24
REMARK    4  A    between atoms: S_24  and  N_28
REMARK                            x       y       z     vdW  Elec       q    Type
REMARK                         _______ _______ _______ _____ _____    ______ ____
ROOT
ATOM      1  N   UNL     1     -43.480 -17.694 -26.911  0.00  0.00    +0.000 N 
ATOM      2  C   UNL     1     -44.103 -18.806 -26.249  0.00  0.00    +0.000 C 
ATOM      3  O   UNL     1     -44.777 -19.616 -26.939  0.00  0.00    +0.000 OA
ATOM      4  H   UNL     1     -43.143 -17.848 -27.823  0.00  0.00    +0.000 HD
ENDROOT
BRANCH   2   5
ATOM      5  C   UNL     1     -43.935 -19.053 -24.802  0.00  0.00    +0.000 A 
ATOM      6  C   UNL     1     -42.865 -19.828 -24.327  0.00  0.00    +0.000 A 
ATOM      7  C   UNL     1     -42.715 -20.071 -22.958  0.00  0.00    +0.000 A 
ATOM      8  C   UNL     1     -43.641 -19.546 -22.055  0.00  0.00    +0.000 A 
ATOM      9  N   UNL     1     -43.510 -19.770 -20.722  0.00  0.00    +0.000 NA
ATOM     10  C   UNL     1     -44.407 -19.267 -19.831  0.00  0.00    +0.000 A 
ATOM     11  C   UNL     1     -44.217 -19.543 -18.378  0.00  0.00    +0.000 C 
ATOM     12  C   UNL     1     -45.491 -18.503 -20.300  0.00  0.00    +0.000 A 
ATOM     13  C   UNL     1     -46.504 -17.930 -19.366  0.00  0.00    +0.000 C 
ATOM     14  N   UNL     1     -45.622 -18.279 -21.635  0.00  0.00    +0.000 NA
ATOM     15  C   UNL     1     -44.725 -18.780 -22.524  0.00  0.00    +0.000 A 
ATOM     16  C   UNL     1     -44.871 -18.540 -23.892  0.00  0.00    +0.000 A 
ENDBRANCH   2   5
BRANCH   1  22
ATOM     17  C   UNL     1     -44.226 -14.233 -25.678  0.00  0.00    +0.000 A 
ATOM     18  C   UNL     1     -42.945 -13.786 -25.349  0.00  0.00    +0.000 A 
ATOM     19  C   UNL     1     -41.843 -14.626 -25.530  0.00  0.00    +0.000 A 
ATOM     20  C   UNL     1     -42.016 -15.918 -26.039  0.00  0.00    +0.000 A 
ATOM     21  C   UNL     1     -40.818 -16.786 -26.221  0.00  0.00    +0.000 C 
ATOM     22  C   UNL     1     -43.305 -16.379 -26.362  0.00  0.00    +0.000 A 
ATOM     23  C   UNL     1     -44.401 -15.520 -26.193  0.00  0.00    +0.000 A 
BRANCH  17  24
ATOM     24  S   UNL     1     -45.613 -13.179 -25.458  0.00  0.00    +0.000 S 
ATOM     25  O   UNL     1     -45.218 -11.760 -25.771  0.00  0.00    +0.000 OA
ATOM     26  O   UNL     1     -46.700 -13.598 -26.409  0.00  0.00    +0.000 OA
BRANCH  24  28
ATOM     27  C   UNL     1     -45.867 -14.628 -23.336  0.00  0.00    +0.000 C 
ATOM     28  N   UNL     1     -46.187 -13.298 -23.825  0.00  0.00    +0.000 NA
ATOM     29  C   UNL     1     -45.421 -12.362 -23.019  0.00  0.00    +0.000 C 
ENDBRANCH  24  28
ENDBRANCH  17  24
ENDBRANCH   1  22
TORSDOF 4
ENDMDL
MODEL 3
REMARK VINA RESULT:      -6.3      3.444      5.510
REMARK  Name = ZINC000032740599 ZINC32740599 CSC026941728 MCULE-1168912559 MolPort-005-697-480 PubChem-39966225
REMARK  4 active torsions:
REMARK  status: ('A' for Active; 'I' for Inactive)
REMARK    1  A    between atoms: N_1  and  C_22
REMARK    2  A    between atoms: C_2  and  C_5
REMARK    3  A    between atoms: C_17  and  S_24
REMARK    4  A    between atoms: S_24  and  N_28
REMARK                            x       y       z     vdW  Elec       q    Type
REMARK                         _______ _______ _______ _____ _____    ______ ____
ROOT
ATOM      1  N   UNL     1     -44.169 -18.501 -19.777  0.00  0.00    +0.000 N 
ATOM      2  C   UNL     1     -43.389 -18.398 -20.979  0.00  0.00    +0.000 C 
ATOM      3  O   UNL     1     -42.226 -18.881 -20.984  0.00  0.00    +0.000 OA
ATOM      4  H   UNL     1     -44.052 -19.315 -19.236  0.00  0.00    +0.000 HD
ENDROOT
BRANCH   2   5
ATOM      5  C   UNL     1     -43.926 -17.792 -22.214  0.00  0.00    +0.000 A 
ATOM      6  C   UNL     1     -44.948 -18.427 -22.939  0.00  0.00    +0.000 A 
ATOM      7  C   UNL     1     -45.446 -17.857 -24.115  0.00  0.00    +0.000 A 
ATOM      8  C   UNL     1     -44.918 -16.651 -24.579  0.00  0.00    +0.000 A 
ATOM      9  N   UNL     1     -45.391 -16.083 -25.718  0.00  0.00    +0.000 NA
ATOM     10  C   UNL     1     -44.883 -14.910 -26.184  0.00  0.00    +0.000 A 
ATOM     11  C   UNL     1     -45.438 -14.328 -27.440  0.00  0.00    +0.000 C 
ATOM     12  C   UNL     1     -43.848 -14.275 -25.473  0.00  0.00    +0.000 A 
ATOM     13  C   UNL     1     -43.255 -12.988 -25.941  0.00  0.00    +0.000 C 
ATOM     14  N   UNL     1     -43.375 -14.845 -24.333  0.00  0.00    +0.000 NA
ATOM     15  C   UNL     1     -43.883 -16.016 -23.867  0.00  0.00    +0.000 A 
ATOM     16  C   UNL     1     -43.389 -16.588 -22.693  0.00  0.00    +0.000 A 
ENDBRANCH   2   5
BRANCH   1  22
ATOM     17  C   UNL     1     -45.567 -15.375 -18.251  0.00  0.00    +0.000 A 
ATOM     18  C   UNL     1     -46.936 -15.647 -18.296  0.00  0.00    +0.000 A 
ATOM     19  C   UNL     1     -47.393 -16.854 -18.831  0.00  0.00    +0.000 A 
ATOM     20  C   UNL     1     -46.484 -17.795 -19.327  0.00  0.00    +0.000 A 
ATOM     21  C   UNL     1     -47.006 -19.073 -19.888  0.00  0.00    +0.000 C 
ATOM     22  C   UNL     1     -45.104 -17.524 -19.295  0.00  0.00    +0.000 A 
ATOM     23  C   UNL     1     -44.656 -16.316 -18.739  0.00  0.00    +0.000 A 
BRANCH  17  24
ATOM     24  S   UNL     1     -44.988 -13.862 -17.574  0.00  0.00    +0.000 S 
ATOM     25  O   UNL     1     -46.074 -13.240 -16.737  0.00  0.00    +0.000 OA
ATOM     26  O   UNL     1     -43.802 -14.143 -16.694  0.00  0.00    +0.000 OA
BRANCH  24  28
ATOM     27  C   UNL     1     -45.732 -12.382 -19.555  0.00  0.00    +0.000 C 
ATOM     28  N   UNL     1     -44.525 -12.785 -18.854  0.00  0.00    +0.000 NA
ATOM     29  C   UNL     1     -43.976 -11.586 -18.244  0.00  0.00    +0.000 C 
ENDBRANCH  24  28
ENDBRANCH  17  24
ENDBRANCH   1  22
TORSDOF 4
ENDMDL
