MODEL 1
REMARK VINA RESULT:      -7.2      0.000      0.000
REMARK  Name = ZINC000003368851 ZINC03368851 CSC027878501 MCULE-2701712437 MolPort-005-844-179 PubChem-2486663
REMARK  7 active torsions:
REMARK  status: ('A' for Active; 'I' for Inactive)
REMARK    1  A    between atoms: C_6  and  C_19
REMARK    2  A    between atoms: N_10  and  C_18
REMARK    3  A    between atoms: C_19  and  O_20
REMARK    4  A    between atoms: O_20  and  C_21
REMARK    5  A    between atoms: C_21  and  C_23
REMARK    6  A    between atoms: C_23  and  S_24
REMARK    7  A    between atoms: S_24  and  C_25
REMARK                            x       y       z     vdW  Elec       q    Type
REMARK                         _______ _______ _______ _____ _____    ______ ____
ROOT
ATOM      1  C   UNL     1     -43.785 -19.257 -21.642  0.00  0.00    +0.000 A 
ATOM      2  N   UNL     1     -42.880 -20.251 -21.832  0.00  0.00    +0.000 NA
ATOM      3  C   UNL     1     -42.729 -20.814 -23.059  0.00  0.00    +0.000 A 
ATOM      4  N   UNL     1     -41.772 -21.846 -23.257  0.00  0.00    +0.000 N 
ATOM      5  N   UNL     1     -43.486 -20.386 -24.100  0.00  0.00    +0.000 NA
ATOM      6  C   UNL     1     -44.388 -19.388 -23.916  0.00  0.00    +0.000 A 
ATOM      7  N   UNL     1     -44.536 -18.826 -22.690  0.00  0.00    +0.000 NA
ATOM      8  H   UNL     1     -41.221 -22.158 -22.503  0.00  0.00    +0.000 HD
ATOM      9  H   UNL     1     -41.659 -22.249 -24.148  0.00  0.00    +0.000 HD
ATOM     10  N   UNL     1     -43.920 -18.673 -20.338  0.00  0.00    +0.000 N 
ATOM     11  H   UNL     1     -43.307 -19.007 -19.644  0.00  0.00    +0.000 HD
ENDROOT
BRANCH  10  18
ATOM     12  C   UNL     1     -46.568 -19.451 -19.478  0.00  0.00    +0.000 C 
ATOM     13  C   UNL     1     -46.144 -18.021 -19.504  0.00  0.00    +0.000 A 
ATOM     14  C   UNL     1     -47.051 -17.040 -19.088  0.00  0.00    +0.000 A 
ATOM     15  C   UNL     1     -46.685 -15.691 -19.094  0.00  0.00    +0.000 A 
ATOM     16  C   UNL     1     -45.409 -15.318 -19.521  0.00  0.00    +0.000 A 
ATOM     17  C   UNL     1     -44.501 -16.295 -19.938  0.00  0.00    +0.000 A 
ATOM     18  C   UNL     1     -44.852 -17.655 -19.930  0.00  0.00    +0.000 A 
ENDBRANCH  10  18
BRANCH   6  19
ATOM     19  C   UNL     1     -45.231 -18.930 -25.057  0.00  0.00    +0.000 C 
BRANCH  19  20
ATOM     20  O   UNL     1     -45.334 -17.512 -25.046  0.00  0.00    +0.000 OA
BRANCH  20  21
ATOM     21  C   UNL     1     -44.547 -16.701 -25.869  0.00  0.00    +0.000 C 
ATOM     22  O   UNL     1     -43.880 -17.192 -26.821  0.00  0.00    +0.000 OA
BRANCH  21  23
ATOM     23  C   UNL     1     -44.481 -15.236 -25.607  0.00  0.00    +0.000 C 
BRANCH  23  24
ATOM     24  S   UNL     1     -46.087 -14.632 -24.992  0.00  0.00    +0.000 S 
BRANCH  24  25
ATOM     25  C   UNL     1     -46.240 -13.401 -26.281  0.00  0.00    +0.000 A 
ATOM     26  C   UNL     1     -46.057 -13.763 -27.620  0.00  0.00    +0.000 A 
ATOM     27  C   UNL     1     -46.213 -12.807 -28.625  0.00  0.00    +0.000 A 
ATOM     28  C   UNL     1     -46.043 -13.226 -30.046  0.00  0.00    +0.000 C 
ATOM     29  C   UNL     1     -46.542 -11.484 -28.278  0.00  0.00    +0.000 A 
ATOM     30  C   UNL     1     -46.709 -10.484 -29.247  0.00  0.00    +0.000 A 
ATOM     31  C   UNL     1     -47.034  -9.180 -28.865  0.00  0.00    +0.000 A 
ATOM     32  C   UNL     1     -47.198  -8.864 -27.514  0.00  0.00    +0.000 A 
ATOM     33  C   UNL     1     -47.041  -9.853 -26.538  0.00  0.00    +0.000 A 
ATOM     34  C   UNL     1     -46.712 -11.160 -26.911  0.00  0.00    +0.000 A 
ATOM     35  N   UNL     1     -46.570 -12.121 -25.960  0.00  0.00    +0.000 NA
ENDBRANCH  24  25
ENDBRANCH  23  24
ENDBRANCH  21  23
ENDBRANCH  20  21
ENDBRANCH  19  20
ENDBRANCH   6  19
TORSDOF 7
ENDMDL
MODEL 2
REMARK VINA RESULT:      -7.0      3.466      6.029
REMARK  Name = ZINC000003368851 ZINC03368851 CSC027878501 MCULE-2701712437 MolPort-005-844-179 PubChem-2486663
REMARK  7 active torsions:
REMARK  status: ('A' for Active; 'I' for Inactive)
REMARK    1  A    between atoms: C_6  and  C_19
REMARK    2  A    between atoms: N_10  and  C_18
REMARK    3  A    between atoms: C_19  and  O_20
REMARK    4  A    between atoms: O_20  and  C_21
REMARK    5  A    between atoms: C_21  and  C_23
REMARK    6  A    between atoms: C_23  and  S_24
REMARK    7  A    between atoms: S_24  and  C_25
REMARK                            x       y       z     vdW  Elec       q    Type
REMARK                         _______ _______ _______ _____ _____    ______ ____
ROOT
ATOM      1  C   UNL     1     -44.150 -18.966 -21.574  0.00  0.00    +0.000 A 
ATOM      2  N   UNL     1     -43.311 -19.978 -21.915  0.00  0.00    +0.000 NA
ATOM      3  C   UNL     1     -43.267 -20.429 -23.194  0.00  0.00    +0.000 A 
ATOM      4  N   UNL     1     -42.377 -21.481 -23.549  0.00  0.00    +0.000 N 
ATOM      5  N   UNL     1     -44.065 -19.872 -24.139  0.00  0.00    +0.000 NA
ATOM      6  C   UNL     1     -44.900 -18.856 -23.805  0.00  0.00    +0.000 A 
ATOM      7  N   UNL     1     -44.942 -18.405 -22.526  0.00  0.00    +0.000 NA
ATOM      8  H   UNL     1     -41.797 -21.886 -22.865  0.00  0.00    +0.000 HD
ATOM      9  H   UNL     1     -42.342 -21.803 -24.479  0.00  0.00    +0.000 HD
ATOM     10  N   UNL     1     -44.173 -18.502 -20.217  0.00  0.00    +0.000 N 
ATOM     11  H   UNL     1     -43.536 -18.926 -19.599  0.00  0.00    +0.000 HD
ENDROOT
BRANCH  10  18
ATOM     12  C   UNL     1     -46.940 -19.129 -19.664  0.00  0.00    +0.000 C 
ATOM     13  C   UNL     1     -46.373 -17.779 -19.378  0.00  0.00    +0.000 A 
ATOM     14  C   UNL     1     -47.204 -16.803 -18.817  0.00  0.00    +0.000 A 
ATOM     15  C   UNL     1     -46.704 -15.529 -18.530  0.00  0.00    +0.000 A 
ATOM     16  C   UNL     1     -45.371 -15.227 -18.809  0.00  0.00    +0.000 A 
ATOM     17  C   UNL     1     -44.539 -16.198 -19.372  0.00  0.00    +0.000 A 
ATOM     18  C   UNL     1     -45.024 -17.485 -19.657  0.00  0.00    +0.000 A 
ENDBRANCH  10  18
BRANCH   6  19
ATOM     19  C   UNL     1     -45.789 -18.255 -24.841  0.00  0.00    +0.000 C 
BRANCH  19  20
ATOM     20  O   UNL     1     -46.102 -16.912 -24.493  0.00  0.00    +0.000 OA
BRANCH  20  21
ATOM     21  C   UNL     1     -45.824 -15.838 -25.343  0.00  0.00    +0.000 C 
ATOM     22  O   UNL     1     -46.479 -14.761 -25.268  0.00  0.00    +0.000 OA
BRANCH  21  23
ATOM     23  C   UNL     1     -44.748 -15.972 -26.364  0.00  0.00    +0.000 C 
BRANCH  23  24
ATOM     24  S   UNL     1     -43.146 -15.457 -25.666  0.00  0.00    +0.000 S 
BRANCH  24  25
ATOM     25  C   UNL     1     -42.388 -17.053 -25.943  0.00  0.00    +0.000 A 
ATOM     26  C   UNL     1     -42.804 -17.849 -27.016  0.00  0.00    +0.000 A 
ATOM     27  C   UNL     1     -42.185 -19.077 -27.251  0.00  0.00    +0.000 A 
ATOM     28  C   UNL     1     -42.627 -19.892 -28.419  0.00  0.00    +0.000 C 
ATOM     29  C   UNL     1     -41.155 -19.508 -26.396  0.00  0.00    +0.000 A 
ATOM     30  C   UNL     1     -40.500 -20.734 -26.585  0.00  0.00    +0.000 A 
ATOM     31  C   UNL     1     -39.482 -21.130 -25.713  0.00  0.00    +0.000 A 
ATOM     32  C   UNL     1     -39.107 -20.305 -24.650  0.00  0.00    +0.000 A 
ATOM     33  C   UNL     1     -39.747 -19.078 -24.454  0.00  0.00    +0.000 A 
ATOM     34  C   UNL     1     -40.769 -18.675 -25.319  0.00  0.00    +0.000 A 
ATOM     35  N   UNL     1     -41.382 -17.476 -25.131  0.00  0.00    +0.000 NA
ENDBRANCH  24  25
ENDBRANCH  23  24
ENDBRANCH  21  23
ENDBRANCH  20  21
ENDBRANCH  19  20
ENDBRANCH   6  19
TORSDOF 7
ENDMDL
MODEL 3
REMARK VINA RESULT:      -6.9      1.238      2.076
REMARK  Name = ZINC000003368851 ZINC03368851 CSC027878501 MCULE-2701712437 MolPort-005-844-179 PubChem-2486663
REMARK  7 active torsions:
REMARK  status: ('A' for Active; 'I' for Inactive)
REMARK    1  A    between atoms: C_6  and  C_19
REMARK    2  A    between atoms: N_10  and  C_18
REMARK    3  A    between atoms: C_19  and  O_20
REMARK    4  A    between atoms: O_20  and  C_21
REMARK    5  A    between atoms: C_21  and  C_23
REMARK    6  A    between atoms: C_23  and  S_24
REMARK    7  A    between atoms: S_24  and  C_25
REMARK                            x       y       z     vdW  Elec       q    Type
REMARK                         _______ _______ _______ _____ _____    ______ ____
ROOT
ATOM      1  C   UNL     1     -44.138 -18.911 -21.582  0.00  0.00    +0.000 A 
ATOM      2  N   UNL     1     -43.338 -19.943 -21.954  0.00  0.00    +0.000 NA
ATOM      3  C   UNL     1     -43.248 -20.303 -23.261  0.00  0.00    +0.000 A 
ATOM      4  N   UNL     1     -42.399 -21.376 -23.647  0.00  0.00    +0.000 N 
ATOM      5  N   UNL     1     -43.962 -19.633 -24.200  0.00  0.00    +0.000 NA
ATOM      6  C   UNL     1     -44.758 -18.597 -23.833  0.00  0.00    +0.000 A 
ATOM      7  N   UNL     1     -44.845 -18.238 -22.528  0.00  0.00    +0.000 NA
ATOM      8  H   UNL     1     -41.880 -21.863 -22.967  0.00  0.00    +0.000 HD
ATOM      9  H   UNL     1     -42.330 -21.632 -24.596  0.00  0.00    +0.000 HD
ATOM     10  N   UNL     1     -44.209 -18.545 -20.197  0.00  0.00    +0.000 N 
ATOM     11  H   UNL     1     -43.631 -19.050 -19.580  0.00  0.00    +0.000 HD
ENDROOT
BRANCH  10  18
ATOM     12  C   UNL     1     -47.012 -19.087 -19.737  0.00  0.00    +0.000 C 
ATOM     13  C   UNL     1     -46.399 -17.776 -19.371  0.00  0.00    +0.000 A 
ATOM     14  C   UNL     1     -47.204 -16.796 -18.781  0.00  0.00    +0.000 A 
ATOM     15  C   UNL     1     -46.662 -15.559 -18.420  0.00  0.00    +0.000 A 
ATOM     16  C   UNL     1     -45.311 -15.297 -18.654  0.00  0.00    +0.000 A 
ATOM     17  C   UNL     1     -44.505 -16.273 -19.246  0.00  0.00    +0.000 A 
ATOM     18  C   UNL     1     -45.034 -17.523 -19.605  0.00  0.00    +0.000 A 
ENDBRANCH  10  18
BRANCH   6  19
ATOM     19  C   UNL     1     -45.555 -17.873 -24.865  0.00  0.00    +0.000 C 
BRANCH  19  20
ATOM     20  O   UNL     1     -45.012 -16.575 -25.074  0.00  0.00    +0.000 OA
BRANCH  20  21
ATOM     21  C   UNL     1     -45.817 -15.433 -25.144  0.00  0.00    +0.000 C 
ATOM     22  O   UNL     1     -47.002 -15.444 -24.709  0.00  0.00    +0.000 OA
BRANCH  21  23
ATOM     23  C   UNL     1     -45.273 -14.190 -25.758  0.00  0.00    +0.000 C 
BRANCH  23  24
ATOM     24  S   UNL     1     -45.338 -14.302 -27.575  0.00  0.00    +0.000 S 
BRANCH  24  25
ATOM     25  C   UNL     1     -45.926 -12.623 -27.766  0.00  0.00    +0.000 A 
ATOM     26  C   UNL     1     -46.152 -11.828 -26.637  0.00  0.00    +0.000 A 
ATOM     27  C   UNL     1     -46.576 -10.508 -26.793  0.00  0.00    +0.000 A 
ATOM     28  C   UNL     1     -46.780  -9.672 -25.575  0.00  0.00    +0.000 C 
ATOM     29  C   UNL     1     -46.783  -9.994 -28.085  0.00  0.00    +0.000 A 
ATOM     30  C   UNL     1     -47.210  -8.675 -28.298  0.00  0.00    +0.000 A 
ATOM     31  C   UNL     1     -47.407  -8.199 -29.597  0.00  0.00    +0.000 A 
ATOM     32  C   UNL     1     -47.177  -9.035 -30.693  0.00  0.00    +0.000 A 
ATOM     33  C   UNL     1     -46.744 -10.349 -30.496  0.00  0.00    +0.000 A 
ATOM     34  C   UNL     1     -46.548 -10.835 -29.200  0.00  0.00    +0.000 A 
ATOM     35  N   UNL     1     -46.118 -12.111 -29.011  0.00  0.00    +0.000 NA
ENDBRANCH  24  25
ENDBRANCH  23  24
ENDBRANCH  21  23
ENDBRANCH  20  21
ENDBRANCH  19  20
ENDBRANCH   6  19
TORSDOF 7
ENDMDL
