MODEL 1
REMARK VINA RESULT:      -7.6      0.000      0.000
REMARK  Name = ZINC000002104886 ZINC02104886 PubChem-1759855
REMARK  3 active torsions:
REMARK  status: ('A' for Active; 'I' for Inactive)
REMARK    1  A    between atoms: C_12  and  C_20
REMARK    2  A    between atoms: N_27  and  C_31
REMARK    3  A    between atoms: C_36  and  O_37
REMARK                            x       y       z     vdW  Elec       q    Type
REMARK                         _______ _______ _______ _____ _____    ______ ____
ROOT
ATOM      1  C   UNL     1     -44.366 -12.466 -30.290  0.00  0.00    +0.000 C 
ATOM      2  C   UNL     1     -45.080 -12.871 -29.036  0.00  0.00    +0.000 A 
ATOM      3  C   UNL     1     -44.709 -14.040 -28.349  0.00  0.00    +0.000 A 
ATOM      4  C   UNL     1     -43.663 -14.856 -28.803  0.00  0.00    +0.000 A 
ATOM      5  C   UNL     1     -43.301 -16.002 -28.096  0.00  0.00    +0.000 A 
ATOM      6  C   UNL     1     -44.002 -16.360 -26.930  0.00  0.00    +0.000 A 
ATOM      7  C   UNL     1     -45.063 -15.555 -26.470  0.00  0.00    +0.000 A 
ATOM      8  C   UNL     1     -45.411 -14.390 -27.174  0.00  0.00    +0.000 A 
ATOM      9  O   UNL     1     -46.405 -13.623 -26.739  0.00  0.00    +0.000 OA
ATOM     10  C   UNL     1     -46.784 -12.509 -27.355  0.00  0.00    +0.000 A 
ATOM     11  O   UNL     1     -47.756 -11.855 -26.893  0.00  0.00    +0.000 OA
ATOM     12  C   UNL     1     -46.117 -12.073 -28.518  0.00  0.00    +0.000 A 
ATOM     13  C   UNL     1     -45.770 -15.907 -25.186  0.00  0.00    +0.000 C 
ATOM     14  C   UNL     1     -45.681 -17.401 -24.882  0.00  0.00    +0.000 C 
ATOM     15  C   UNL     1     -44.222 -17.842 -24.905  0.00  0.00    +0.000 C 
ATOM     16  N   UNL     1     -43.634 -17.551 -26.209  0.00  0.00    +0.000 N 
ATOM     17  C   UNL     1     -42.681 -18.497 -26.782  0.00  0.00    +0.000 C 
ATOM     18  C   UNL     1     -41.587 -17.743 -27.531  0.00  0.00    +0.000 C 
ATOM     19  C   UNL     1     -42.210 -16.886 -28.631  0.00  0.00    +0.000 C 
ENDROOT
BRANCH  12  20
ATOM     20  C   UNL     1     -46.546 -10.850 -29.231  0.00  0.00    +0.000 C 
ATOM     21  C   UNL     1     -46.170  -9.588 -28.959  0.00  0.00    +0.000 C 
ATOM     22  C   UNL     1     -46.805  -8.486 -29.705  0.00  0.00    +0.000 C 
ATOM     23  O   UNL     1     -47.607  -8.722 -30.648  0.00  0.00    +0.000 OA
ATOM     24  N   UNL     1     -46.523  -7.132 -29.352  0.00  0.00    +0.000 N 
ATOM     25  C   UNL     1     -45.637  -6.809 -28.281  0.00  0.00    +0.000 C 
ATOM     26  O   UNL     1     -45.478  -5.601 -27.960  0.00  0.00    +0.000 OA
ATOM     27  N   UNL     1     -44.945  -7.855 -27.569  0.00  0.00    +0.000 N 
ATOM     28  C   UNL     1     -45.122  -9.229 -27.968  0.00  0.00    +0.000 C 
ATOM     29  O   UNL     1     -44.340 -10.112 -27.520  0.00  0.00    +0.000 OA
ATOM     30  H   UNL     1     -46.950  -6.405 -29.860  0.00  0.00    +0.000 HD
BRANCH  27  31
ATOM     31  C   UNL     1     -44.040  -7.525 -26.498  0.00  0.00    +0.000 A 
ATOM     32  C   UNL     1     -42.710  -7.189 -26.793  0.00  0.00    +0.000 A 
ATOM     33  C   UNL     1     -41.814  -6.880 -25.767  0.00  0.00    +0.000 A 
ATOM     34  C   UNL     1     -42.238  -6.904 -24.438  0.00  0.00    +0.000 A 
ATOM     35  C   UNL     1     -43.561  -7.232 -24.134  0.00  0.00    +0.000 A 
ATOM     36  C   UNL     1     -44.473  -7.543 -25.158  0.00  0.00    +0.000 A 
BRANCH  36  37
ATOM     37  O   UNL     1     -45.806  -7.857 -24.865  0.00  0.00    +0.000 OA
ATOM     38  C   UNL     1     -46.213  -9.140 -24.410  0.00  0.00    +0.000 C 
ENDBRANCH  36  37
ENDBRANCH  27  31
ENDBRANCH  12  20
TORSDOF 3
ENDMDL
MODEL 2
REMARK VINA RESULT:      -7.2      3.941      9.131
REMARK  Name = ZINC000002104886 ZINC02104886 PubChem-1759855
REMARK  3 active torsions:
REMARK  status: ('A' for Active; 'I' for Inactive)
REMARK    1  A    between atoms: C_12  and  C_20
REMARK    2  A    between atoms: N_27  and  C_31
REMARK    3  A    between atoms: C_36  and  O_37
REMARK                            x       y       z     vdW  Elec       q    Type
REMARK                         _______ _______ _______ _____ _____    ______ ____
ROOT
ATOM      1  C   UNL     1     -47.276  -8.394 -32.145  0.00  0.00    +0.000 C 
ATOM      2  C   UNL     1     -45.832  -8.114 -31.859  0.00  0.00    +0.000 A 
ATOM      3  C   UNL     1     -45.282  -6.851 -32.136  0.00  0.00    +0.000 A 
ATOM      4  C   UNL     1     -46.057  -5.815 -32.676  0.00  0.00    +0.000 A 
ATOM      5  C   UNL     1     -45.494  -4.565 -32.927  0.00  0.00    +0.000 A 
ATOM      6  C   UNL     1     -44.131  -4.341 -32.660  0.00  0.00    +0.000 A 
ATOM      7  C   UNL     1     -43.337  -5.377 -32.128  0.00  0.00    +0.000 A 
ATOM      8  C   UNL     1     -43.914  -6.629 -31.858  0.00  0.00    +0.000 A 
ATOM      9  O   UNL     1     -43.171  -7.606 -31.348  0.00  0.00    +0.000 OA
ATOM     10  C   UNL     1     -43.654  -8.811 -31.067  0.00  0.00    +0.000 A 
ATOM     11  O   UNL     1     -42.874  -9.691 -30.613  0.00  0.00    +0.000 OA
ATOM     12  C   UNL     1     -45.014  -9.106 -31.288  0.00  0.00    +0.000 A 
ATOM     13  C   UNL     1     -41.894  -5.115 -31.784  0.00  0.00    +0.000 C 
ATOM     14  C   UNL     1     -41.309  -3.979 -32.621  0.00  0.00    +0.000 C 
ATOM     15  C   UNL     1     -42.191  -2.743 -32.494  0.00  0.00    +0.000 C 
ATOM     16  N   UNL     1     -43.548  -3.052 -32.932  0.00  0.00    +0.000 N 
ATOM     17  C   UNL     1     -44.302  -2.042 -33.669  0.00  0.00    +0.000 C 
ATOM     18  C   UNL     1     -45.773  -2.096 -33.269  0.00  0.00    +0.000 C 
ATOM     19  C   UNL     1     -46.334  -3.488 -33.553  0.00  0.00    +0.000 C 
ENDROOT
BRANCH  12  20
ATOM     20  C   UNL     1     -45.559 -10.453 -31.008  0.00  0.00    +0.000 C 
ATOM     21  C   UNL     1     -46.028 -10.900 -29.829  0.00  0.00    +0.000 C 
ATOM     22  C   UNL     1     -46.415 -12.319 -29.716  0.00  0.00    +0.000 C 
ATOM     23  O   UNL     1     -46.404 -13.074 -30.725  0.00  0.00    +0.000 OA
ATOM     24  N   UNL     1     -46.795 -12.854 -28.449  0.00  0.00    +0.000 N 
ATOM     25  C   UNL     1     -46.806 -12.047 -27.271  0.00  0.00    +0.000 C 
ATOM     26  O   UNL     1     -47.077 -12.583 -26.164  0.00  0.00    +0.000 OA
ATOM     27  N   UNL     1     -46.498 -10.641 -27.349  0.00  0.00    +0.000 N 
ATOM     28  C   UNL     1     -46.215 -10.042 -28.630  0.00  0.00    +0.000 C 
ATOM     29  O   UNL     1     -46.192  -8.785 -28.736  0.00  0.00    +0.000 OA
ATOM     30  H   UNL     1     -47.054 -13.801 -28.385  0.00  0.00    +0.000 HD
BRANCH  27  31
ATOM     31  C   UNL     1     -46.525  -9.826 -26.162  0.00  0.00    +0.000 A 
ATOM     32  C   UNL     1     -47.706  -9.157 -25.806  0.00  0.00    +0.000 A 
ATOM     33  C   UNL     1     -47.747  -8.351 -24.666  0.00  0.00    +0.000 A 
ATOM     34  C   UNL     1     -46.610  -8.208 -23.871  0.00  0.00    +0.000 A 
ATOM     35  C   UNL     1     -45.431  -8.874 -24.213  0.00  0.00    +0.000 A 
ATOM     36  C   UNL     1     -45.377  -9.689 -25.357  0.00  0.00    +0.000 A 
BRANCH  36  37
ATOM     37  O   UNL     1     -44.206 -10.374 -25.699  0.00  0.00    +0.000 OA
ATOM     38  C   UNL     1     -43.180  -9.797 -26.497  0.00  0.00    +0.000 C 
ENDBRANCH  36  37
ENDBRANCH  27  31
ENDBRANCH  12  20
TORSDOF 3
ENDMDL
MODEL 3
REMARK VINA RESULT:      -7.1      5.920      7.864
REMARK  Name = ZINC000002104886 ZINC02104886 PubChem-1759855
REMARK  3 active torsions:
REMARK  status: ('A' for Active; 'I' for Inactive)
REMARK    1  A    between atoms: C_12  and  C_20
REMARK    2  A    between atoms: N_27  and  C_31
REMARK    3  A    between atoms: C_36  and  O_37
REMARK                            x       y       z     vdW  Elec       q    Type
REMARK                         _______ _______ _______ _____ _____    ______ ____
ROOT
ATOM      1  C   UNL     1     -46.589  -7.744 -28.544  0.00  0.00    +0.000 C 
ATOM      2  C   UNL     1     -45.098  -7.906 -28.547  0.00  0.00    +0.000 A 
ATOM      3  C   UNL     1     -44.359  -7.727 -27.366  0.00  0.00    +0.000 A 
ATOM      4  C   UNL     1     -44.982  -7.402 -26.152  0.00  0.00    +0.000 A 
ATOM      5  C   UNL     1     -44.229  -7.246 -24.989  0.00  0.00    +0.000 A 
ATOM      6  C   UNL     1     -42.831  -7.391 -25.031  0.00  0.00    +0.000 A 
ATOM      7  C   UNL     1     -42.191  -7.706 -26.246  0.00  0.00    +0.000 A 
ATOM      8  C   UNL     1     -42.955  -7.883 -27.412  0.00  0.00    +0.000 A 
ATOM      9  O   UNL     1     -42.356  -8.188 -28.559  0.00  0.00    +0.000 OA
ATOM     10  C   UNL     1     -43.019  -8.371 -29.695  0.00  0.00    +0.000 A 
ATOM     11  O   UNL     1     -42.372  -8.629 -30.745  0.00  0.00    +0.000 OA
ATOM     12  C   UNL     1     -44.424  -8.262 -29.729  0.00  0.00    +0.000 A 
ATOM     13  C   UNL     1     -40.700  -7.924 -26.275  0.00  0.00    +0.000 C 
ATOM     14  C   UNL     1     -39.997  -7.173 -25.146  0.00  0.00    +0.000 C 
ATOM     15  C   UNL     1     -40.632  -7.542 -23.811  0.00  0.00    +0.000 C 
ATOM     16  N   UNL     1     -42.055  -7.217 -23.830  0.00  0.00    +0.000 N 
ATOM     17  C   UNL     1     -42.677  -6.693 -22.618  0.00  0.00    +0.000 C 
ATOM     18  C   UNL     1     -44.095  -7.237 -22.485  0.00  0.00    +0.000 C 
ATOM     19  C   UNL     1     -44.916  -6.848 -23.713  0.00  0.00    +0.000 C 
ENDROOT
BRANCH  12  20
ATOM     20  C   UNL     1     -45.173  -8.433 -30.994  0.00  0.00    +0.000 C 
ATOM     21  C   UNL     1     -45.488  -7.470 -31.878  0.00  0.00    +0.000 C 
ATOM     22  C   UNL     1     -46.351  -7.816 -33.022  0.00  0.00    +0.000 C 
ATOM     23  O   UNL     1     -46.704  -9.009 -33.227  0.00  0.00    +0.000 OA
ATOM     24  N   UNL     1     -46.807  -6.793 -33.905  0.00  0.00    +0.000 N 
ATOM     25  C   UNL     1     -46.452  -5.425 -33.708  0.00  0.00    +0.000 C 
ATOM     26  O   UNL     1     -46.940  -4.549 -34.471  0.00  0.00    +0.000 OA
ATOM     27  N   UNL     1     -45.558  -5.051 -32.641  0.00  0.00    +0.000 N 
ATOM     28  C   UNL     1     -44.991  -6.072 -31.794  0.00  0.00    +0.000 C 
ATOM     29  O   UNL     1     -44.029  -5.782 -31.031  0.00  0.00    +0.000 OA
ATOM     30  H   UNL     1     -47.380  -7.036 -34.668  0.00  0.00    +0.000 HD
BRANCH  27  31
ATOM     31  C   UNL     1     -45.189  -3.672 -32.454  0.00  0.00    +0.000 A 
ATOM     32  C   UNL     1     -44.164  -3.115 -33.233  0.00  0.00    +0.000 A 
ATOM     33  C   UNL     1     -43.783  -1.783 -33.056  0.00  0.00    +0.000 A 
ATOM     34  C   UNL     1     -44.424  -0.995 -32.099  0.00  0.00    +0.000 A 
ATOM     35  C   UNL     1     -45.449  -1.538 -31.321  0.00  0.00    +0.000 A 
ATOM     36  C   UNL     1     -45.843  -2.876 -31.492  0.00  0.00    +0.000 A 
BRANCH  36  37
ATOM     37  O   UNL     1     -46.881  -3.425 -30.729  0.00  0.00    +0.000 OA
ATOM     38  C   UNL     1     -46.674  -3.997 -29.445  0.00  0.00    +0.000 C 
ENDBRANCH  36  37
ENDBRANCH  27  31
ENDBRANCH  12  20
TORSDOF 3
ENDMDL
