MODEL 1
REMARK VINA RESULT:      -6.0      0.000      0.000
REMARK  Name = ZINC000007171592 ZINC07171592 PubChem-8287314
REMARK  5 active torsions:
REMARK  status: ('A' for Active; 'I' for Inactive)
REMARK    1  A    between atoms: C_2  and  C_3
REMARK    2  A    between atoms: C_2  and  S_17
REMARK    3  A    between atoms: S_17  and  C_18
REMARK    4  A    between atoms: C_21  and  C_29
REMARK    5  A    between atoms: N_22  and  C_23
REMARK                            x       y       z     vdW  Elec       q    Type
REMARK                         _______ _______ _______ _____ _____    ______ ____
ROOT
ATOM      1  C   UNL     1     -46.248  -5.353 -28.179  0.00  0.00    +0.000 C 
ATOM      2  C   UNL     1     -46.066  -5.473 -29.684  0.00  0.00    +0.000 C 
ENDROOT
BRANCH   2   3
ATOM      3  C   UNL     1     -46.026  -6.904 -30.150  0.00  0.00    +0.000 C 
ATOM      4  O   UNL     1     -47.060  -7.622 -30.055  0.00  0.00    +0.000 OA
ATOM      5  N   UNL     1     -44.806  -7.463 -30.681  0.00  0.00    +0.000 N 
ATOM      6  C   UNL     1     -43.538  -6.786 -30.375  0.00  0.00    +0.000 C 
ATOM      7  C   UNL     1     -42.404  -7.759 -30.270  0.00  0.00    +0.000 C 
ATOM      8  O   UNL     1     -41.390  -7.468 -29.585  0.00  0.00    +0.000 OA
ATOM      9  N   UNL     1     -42.441  -8.983 -31.004  0.00  0.00    +0.000 N 
ATOM     10  C   UNL     1     -43.623  -9.369 -31.703  0.00  0.00    +0.000 A 
ATOM     11  C   UNL     1     -44.806  -8.620 -31.549  0.00  0.00    +0.000 A 
ATOM     12  C   UNL     1     -45.957  -9.012 -32.252  0.00  0.00    +0.000 A 
ATOM     13  C   UNL     1     -45.933 -10.136 -33.081  0.00  0.00    +0.000 A 
ATOM     14  C   UNL     1     -44.759 -10.881 -33.217  0.00  0.00    +0.000 A 
ATOM     15  C   UNL     1     -43.605 -10.498 -32.528  0.00  0.00    +0.000 A 
ATOM     16  H   UNL     1     -41.647  -9.563 -31.028  0.00  0.00    +0.000 HD
ENDBRANCH   2   3
BRANCH   2  17
ATOM     17  S   UNL     1     -47.404  -4.584 -30.535  0.00  0.00    +0.000 S 
BRANCH  17  18
ATOM     18  C   UNL     1     -46.269  -3.386 -31.240  0.00  0.00    +0.000 A 
ATOM     19  N   UNL     1     -45.899  -2.267 -30.590  0.00  0.00    +0.000 NA
ATOM     20  N   UNL     1     -45.106  -1.591 -31.406  0.00  0.00    +0.000 NA
ATOM     21  C   UNL     1     -45.015  -2.299 -32.551  0.00  0.00    +0.000 A 
ATOM     22  N   UNL     1     -45.729  -3.446 -32.477  0.00  0.00    +0.000 N 
BRANCH  22  23
ATOM     23  C   UNL     1     -45.854  -4.491 -33.463  0.00  0.00    +0.000 A 
ATOM     24  C   UNL     1     -46.999  -4.578 -34.270  0.00  0.00    +0.000 A 
ATOM     25  C   UNL     1     -47.121  -5.588 -35.227  0.00  0.00    +0.000 A 
ATOM     26  C   UNL     1     -46.098  -6.526 -35.386  0.00  0.00    +0.000 A 
ATOM     27  C   UNL     1     -44.954  -6.452 -34.587  0.00  0.00    +0.000 A 
ATOM     28  C   UNL     1     -44.834  -5.440 -33.631  0.00  0.00    +0.000 A 
ENDBRANCH  22  23
BRANCH  21  29
ATOM     29  C   UNL     1     -44.142  -1.904 -33.707  0.00  0.00    +0.000 C 
ATOM     30  C   UNL     1     -42.686  -2.249 -33.441  0.00  0.00    +0.000 C 
ATOM     31  C   UNL     1     -43.169  -0.831 -33.255  0.00  0.00    +0.000 C 
ENDBRANCH  21  29
ENDBRANCH  17  18
ENDBRANCH   2  17
TORSDOF 5
ENDMDL
MODEL 2
REMARK VINA RESULT:      -6.0      2.373      2.724
REMARK  Name = ZINC000007171592 ZINC07171592 PubChem-8287314
REMARK  5 active torsions:
REMARK  status: ('A' for Active; 'I' for Inactive)
REMARK    1  A    between atoms: C_2  and  C_3
REMARK    2  A    between atoms: C_2  and  S_17
REMARK    3  A    between atoms: S_17  and  C_18
REMARK    4  A    between atoms: C_21  and  C_29
REMARK    5  A    between atoms: N_22  and  C_23
REMARK                            x       y       z     vdW  Elec       q    Type
REMARK                         _______ _______ _______ _____ _____    ______ ____
ROOT
ATOM      1  C   UNL     1     -44.196  -5.737 -29.568  0.00  0.00    +0.000 C 
ATOM      2  C   UNL     1     -45.050  -6.708 -30.370  0.00  0.00    +0.000 C 
ENDROOT
BRANCH   2   3
ATOM      3  C   UNL     1     -45.040  -8.099 -29.795  0.00  0.00    +0.000 C 
ATOM      4  O   UNL     1     -44.734  -8.273 -28.583  0.00  0.00    +0.000 OA
ATOM      5  N   UNL     1     -45.354  -9.233 -30.630  0.00  0.00    +0.000 N 
ATOM      6  C   UNL     1     -45.264  -9.073 -32.087  0.00  0.00    +0.000 C 
ATOM      7  C   UNL     1     -44.845 -10.345 -32.758  0.00  0.00    +0.000 C 
ATOM      8  O   UNL     1     -44.277 -10.305 -33.879  0.00  0.00    +0.000 OA
ATOM      9  N   UNL     1     -45.156 -11.604 -32.161  0.00  0.00    +0.000 N 
ATOM     10  C   UNL     1     -45.710 -11.663 -30.848  0.00  0.00    +0.000 A 
ATOM     11  C   UNL     1     -45.812 -10.489 -30.077  0.00  0.00    +0.000 A 
ATOM     12  C   UNL     1     -46.369 -10.566 -28.789  0.00  0.00    +0.000 A 
ATOM     13  C   UNL     1     -46.800 -11.792 -28.275  0.00  0.00    +0.000 A 
ATOM     14  C   UNL     1     -46.681 -12.953 -29.043  0.00  0.00    +0.000 A 
ATOM     15  C   UNL     1     -46.137 -12.889 -30.328  0.00  0.00    +0.000 A 
ATOM     16  H   UNL     1     -44.987 -12.437 -32.659  0.00  0.00    +0.000 HD
ENDBRANCH   2   3
BRANCH   2  17
ATOM     17  S   UNL     1     -46.758  -6.089 -30.460  0.00  0.00    +0.000 S 
BRANCH  17  18
ATOM     18  C   UNL     1     -46.232  -4.493 -31.089  0.00  0.00    +0.000 A 
ATOM     19  N   UNL     1     -46.340  -3.359 -30.371  0.00  0.00    +0.000 NA
ATOM     20  N   UNL     1     -45.913  -2.372 -31.142  0.00  0.00    +0.000 NA
ATOM     21  C   UNL     1     -45.566  -2.914 -32.328  0.00  0.00    +0.000 A 
ATOM     22  N   UNL     1     -45.743  -4.256 -32.326  0.00  0.00    +0.000 N 
BRANCH  22  23
ATOM     23  C   UNL     1     -45.450  -5.202 -33.374  0.00  0.00    +0.000 A 
ATOM     24  C   UNL     1     -46.468  -5.667 -34.221  0.00  0.00    +0.000 A 
ATOM     25  C   UNL     1     -46.185  -6.582 -35.238  0.00  0.00    +0.000 A 
ATOM     26  C   UNL     1     -44.879  -7.046 -35.417  0.00  0.00    +0.000 A 
ATOM     27  C   UNL     1     -43.858  -6.593 -34.577  0.00  0.00    +0.000 A 
ATOM     28  C   UNL     1     -44.143  -5.677 -33.562  0.00  0.00    +0.000 A 
ENDBRANCH  22  23
BRANCH  21  29
ATOM     29  C   UNL     1     -44.959  -2.131 -33.456  0.00  0.00    +0.000 C 
ATOM     30  C   UNL     1     -43.445  -2.082 -33.341  0.00  0.00    +0.000 C 
ATOM     31  C   UNL     1     -44.271  -0.899 -32.896  0.00  0.00    +0.000 C 
ENDBRANCH  21  29
ENDBRANCH  17  18
ENDBRANCH   2  17
TORSDOF 5
ENDMDL
MODEL 3
REMARK VINA RESULT:      -5.8      2.527      6.080
REMARK  Name = ZINC000007171592 ZINC07171592 PubChem-8287314
REMARK  5 active torsions:
REMARK  status: ('A' for Active; 'I' for Inactive)
REMARK    1  A    between atoms: C_2  and  C_3
REMARK    2  A    between atoms: C_2  and  S_17
REMARK    3  A    between atoms: S_17  and  C_18
REMARK    4  A    between atoms: C_21  and  C_29
REMARK    5  A    between atoms: N_22  and  C_23
REMARK                            x       y       z     vdW  Elec       q    Type
REMARK                         _______ _______ _______ _____ _____    ______ ____
ROOT
ATOM      1  C   UNL     1     -45.471  -9.164 -32.707  0.00  0.00    +0.000 C 
ATOM      2  C   UNL     1     -45.784  -7.922 -31.886  0.00  0.00    +0.000 C 
ENDROOT
BRANCH   2   3
ATOM      3  C   UNL     1     -45.456  -6.647 -32.617  0.00  0.00    +0.000 C 
ATOM      4  O   UNL     1     -45.950  -6.437 -33.759  0.00  0.00    +0.000 OA
ATOM      5  N   UNL     1     -44.563  -5.680 -32.027  0.00  0.00    +0.000 N 
ATOM      6  C   UNL     1     -43.669  -6.122 -30.948  0.00  0.00    +0.000 C 
ATOM      7  C   UNL     1     -42.370  -5.377 -30.966  0.00  0.00    +0.000 C 
ATOM      8  O   UNL     1     -41.342  -5.897 -30.463  0.00  0.00    +0.000 OA
ATOM      9  N   UNL     1     -42.315  -4.048 -31.486  0.00  0.00    +0.000 N 
ATOM     10  C   UNL     1     -43.446  -3.485 -32.148  0.00  0.00    +0.000 A 
ATOM     11  C   UNL     1     -44.570  -4.288 -32.422  0.00  0.00    +0.000 A 
ATOM     12  C   UNL     1     -45.677  -3.713 -33.067  0.00  0.00    +0.000 A 
ATOM     13  C   UNL     1     -45.659  -2.367 -33.443  0.00  0.00    +0.000 A 
ATOM     14  C   UNL     1     -44.533  -1.582 -33.178  0.00  0.00    +0.000 A 
ATOM     15  C   UNL     1     -43.428  -2.141 -32.532  0.00  0.00    +0.000 A 
ATOM     16  H   UNL     1     -41.491  -3.519 -31.389  0.00  0.00    +0.000 HD
ENDBRANCH   2   3
BRANCH   2  17
ATOM     17  S   UNL     1     -47.539  -7.928 -31.411  0.00  0.00    +0.000 S 
BRANCH  17  18
ATOM     18  C   UNL     1     -47.284  -6.683 -30.145  0.00  0.00    +0.000 A 
ATOM     19  N   UNL     1     -47.608  -5.389 -30.324  0.00  0.00    +0.000 NA
ATOM     20  N   UNL     1     -47.246  -4.744 -29.227  0.00  0.00    +0.000 NA
ATOM     21  C   UNL     1     -46.689  -5.652 -28.397  0.00  0.00    +0.000 A 
ATOM     22  N   UNL     1     -46.708  -6.891 -28.940  0.00  0.00    +0.000 N 
BRANCH  22  23
ATOM     23  C   UNL     1     -46.255  -8.132 -28.363  0.00  0.00    +0.000 A 
ATOM     24  C   UNL     1     -47.164  -9.011 -27.754  0.00  0.00    +0.000 A 
ATOM     25  C   UNL     1     -46.726 -10.214 -27.196  0.00  0.00    +0.000 A 
ATOM     26  C   UNL     1     -45.371 -10.550 -27.237  0.00  0.00    +0.000 A 
ATOM     27  C   UNL     1     -44.455  -9.682 -27.836  0.00  0.00    +0.000 A 
ATOM     28  C   UNL     1     -44.895  -8.480 -28.395  0.00  0.00    +0.000 A 
ENDBRANCH  22  23
BRANCH  21  29
ATOM     29  C   UNL     1     -46.216  -5.331 -27.009  0.00  0.00    +0.000 C 
ATOM     30  C   UNL     1     -47.296  -5.616 -25.979  0.00  0.00    +0.000 C 
ATOM     31  C   UNL     1     -47.056  -4.200 -26.443  0.00  0.00    +0.000 C 
ENDBRANCH  21  29
ENDBRANCH  17  18
ENDBRANCH   2  17
TORSDOF 5
ENDMDL
