MODEL 1
REMARK VINA RESULT:      -6.7      0.000      0.000
REMARK  Name = ZINC000493967022
REMARK  7 active torsions:
REMARK  status: ('A' for Active; 'I' for Inactive)
REMARK    1  A    between atoms: C_2  and  O_25
REMARK    2  A    between atoms: C_5  and  C_6
REMARK    3  A    between atoms: C_7  and  C_8
REMARK    4  A    between atoms: C_9  and  C_10
REMARK    5  A    between atoms: C_9  and  N_28
REMARK    6  A    between atoms: C_12  and  C_13
REMARK    7  A    between atoms: C_17  and  C_18
REMARK                            x       y       z     vdW  Elec       q    Type
REMARK                         _______ _______ _______ _____ _____    ______ ____
ROOT
ATOM      1  C   UNL     1     -44.435 -19.188 -25.327  0.00  0.00    +0.000 C 
ATOM      2  O   UNL     1     -45.420 -19.974 -25.328  0.00  0.00    +0.000 OA
ATOM      3  N   UNL     1     -43.541 -19.146 -24.212  0.00  0.00    +0.000 NA
ENDROOT
BRANCH   1   5
ATOM      4  C   UNL     1     -43.588 -16.960 -26.055  0.00  0.00    +0.000 C 
ATOM      5  C   UNL     1     -44.209 -18.296 -26.503  0.00  0.00    +0.000 C 
ATOM      6  C   UNL     1     -43.242 -18.950 -27.499  0.00  0.00    +0.000 C 
ATOM      7  C   UNL     1     -42.147 -17.966 -27.603  0.00  0.00    +0.000 C 
ATOM      8  C   UNL     1     -41.338 -15.820 -26.523  0.00  0.00    +0.000 C 
ATOM      9  O   UNL     1     -41.124 -18.131 -28.319  0.00  0.00    +0.000 OA
ATOM     10  N   UNL     1     -42.354 -16.822 -26.804  0.00  0.00    +0.000 N 
BRANCH   4  14
ATOM     11  C   UNL     1     -46.240 -13.672 -26.897  0.00  0.00    +0.000 A 
ATOM     12  C   UNL     1     -45.434 -14.215 -27.902  0.00  0.00    +0.000 A 
ATOM     13  C   UNL     1     -44.576 -15.283 -27.621  0.00  0.00    +0.000 A 
ATOM     14  C   UNL     1     -44.520 -15.819 -26.332  0.00  0.00    +0.000 A 
ATOM     15  C   UNL     1     -45.323 -15.276 -25.319  0.00  0.00    +0.000 A 
ATOM     16  C   UNL     1     -46.180 -14.208 -25.600  0.00  0.00    +0.000 A 
BRANCH  11  18
ATOM     17  C   UNL     1     -46.844 -11.275 -26.779  0.00  0.00    +0.000 C 
ATOM     18  O   UNL     1     -47.089 -12.607 -27.211  0.00  0.00    +0.000 OA
ENDBRANCH  11  18
ENDBRANCH   4  14
ENDBRANCH   1   5
BRANCH   3  19
ATOM     19  C   UNL     1     -43.712 -20.004 -23.052  0.00  0.00    +0.000 C 
BRANCH  19  20
ATOM     20  C   UNL     1     -44.148 -19.185 -21.889  0.00  0.00    +0.000 A 
ATOM     21  C   UNL     1     -44.669 -18.644 -19.894  0.00  0.00    +0.000 A 
ATOM     22  C   UNL     1     -44.910 -17.584 -20.745  0.00  0.00    +0.000 A 
ATOM     23  N   UNL     1     -44.188 -19.663 -20.630  0.00  0.00    +0.000 NA
ATOM     24  N   UNL     1     -44.588 -17.919 -22.007  0.00  0.00    +0.000 NA
BRANCH  22  25
ATOM     25  C   UNL     1     -45.452 -16.271 -20.355  0.00  0.00    +0.000 A 
ATOM     26  C   UNL     1     -46.110 -15.462 -21.293  0.00  0.00    +0.000 A 
ATOM     27  C   UNL     1     -46.621 -14.216 -20.916  0.00  0.00    +0.000 A 
ATOM     28  C   UNL     1     -46.477 -13.772 -19.600  0.00  0.00    +0.000 A 
ATOM     29  C   UNL     1     -45.823 -14.572 -18.659  0.00  0.00    +0.000 A 
ATOM     30  C   UNL     1     -45.312 -15.818 -19.035  0.00  0.00    +0.000 A 
BRANCH  29  31
ATOM     31  C   UNL     1     -45.673 -14.114 -17.307  0.00  0.00    +0.000 C 
ATOM     32  N   UNL     1     -45.552 -13.744 -16.216  0.00  0.00    +0.000 NA
ENDBRANCH  29  31
ENDBRANCH  22  25
ENDBRANCH  19  20
ENDBRANCH   3  19
TORSDOF 7
ENDMDL
MODEL 2
REMARK VINA RESULT:      -6.5      1.777      2.505
REMARK  Name = ZINC000493967022
REMARK  7 active torsions:
REMARK  status: ('A' for Active; 'I' for Inactive)
REMARK    1  A    between atoms: C_2  and  O_25
REMARK    2  A    between atoms: C_5  and  C_6
REMARK    3  A    between atoms: C_7  and  C_8
REMARK    4  A    between atoms: C_9  and  C_10
REMARK    5  A    between atoms: C_9  and  N_28
REMARK    6  A    between atoms: C_12  and  C_13
REMARK    7  A    between atoms: C_17  and  C_18
REMARK                            x       y       z     vdW  Elec       q    Type
REMARK                         _______ _______ _______ _____ _____    ______ ____
ROOT
ATOM      1  C   UNL     1     -43.148 -18.608 -26.802  0.00  0.00    +0.000 C 
ATOM      2  O   UNL     1     -42.206 -19.315 -26.356  0.00  0.00    +0.000 OA
ATOM      3  N   UNL     1     -44.499 -18.876 -26.421  0.00  0.00    +0.000 NA
ENDROOT
BRANCH   1   5
ATOM      4  C   UNL     1     -42.827 -16.143 -26.985  0.00  0.00    +0.000 C 
ATOM      5  C   UNL     1     -42.841 -17.487 -27.739  0.00  0.00    +0.000 C 
ATOM      6  C   UNL     1     -41.458 -17.679 -28.377  0.00  0.00    +0.000 C 
ATOM      7  C   UNL     1     -40.737 -16.448 -27.998  0.00  0.00    +0.000 C 
ATOM      8  C   UNL     1     -40.997 -14.406 -26.520  0.00  0.00    +0.000 C 
ATOM      9  O   UNL     1     -39.540 -16.214 -28.315  0.00  0.00    +0.000 OA
ATOM     10  N   UNL     1     -41.521 -15.562 -27.231  0.00  0.00    +0.000 N 
BRANCH   4  14
ATOM     11  C   UNL     1     -45.999 -13.573 -28.355  0.00  0.00    +0.000 A 
ATOM     12  C   UNL     1     -45.973 -14.034 -27.035  0.00  0.00    +0.000 A 
ATOM     13  C   UNL     1     -44.939 -14.867 -26.598  0.00  0.00    +0.000 A 
ATOM     14  C   UNL     1     -43.920 -15.244 -27.477  0.00  0.00    +0.000 A 
ATOM     15  C   UNL     1     -43.944 -14.788 -28.803  0.00  0.00    +0.000 A 
ATOM     16  C   UNL     1     -44.978 -13.956 -29.240  0.00  0.00    +0.000 A 
BRANCH  11  18
ATOM     17  C   UNL     1     -46.839 -11.576 -29.552  0.00  0.00    +0.000 C 
ATOM     18  O   UNL     1     -47.045 -12.738 -28.760  0.00  0.00    +0.000 OA
ENDBRANCH  11  18
ENDBRANCH   4  14
ENDBRANCH   1   5
BRANCH   3  19
ATOM     19  C   UNL     1     -44.845 -19.946 -25.502  0.00  0.00    +0.000 C 
BRANCH  19  20
ATOM     20  C   UNL     1     -44.669 -19.474 -24.101  0.00  0.00    +0.000 A 
ATOM     21  C   UNL     1     -43.907 -19.309 -22.117  0.00  0.00    +0.000 A 
ATOM     22  C   UNL     1     -44.999 -18.478 -22.271  0.00  0.00    +0.000 A 
ATOM     23  N   UNL     1     -43.704 -19.944 -23.286  0.00  0.00    +0.000 NA
ATOM     24  N   UNL     1     -45.488 -18.580 -23.519  0.00  0.00    +0.000 NA
BRANCH  22  25
ATOM     25  C   UNL     1     -45.573 -17.607 -21.231  0.00  0.00    +0.000 A 
ATOM     26  C   UNL     1     -46.066 -18.151 -20.035  0.00  0.00    +0.000 A 
ATOM     27  C   UNL     1     -46.610 -17.318 -19.053  0.00  0.00    +0.000 A 
ATOM     28  C   UNL     1     -46.666 -15.938 -19.259  0.00  0.00    +0.000 A 
ATOM     29  C   UNL     1     -46.177 -15.388 -20.447  0.00  0.00    +0.000 A 
ATOM     30  C   UNL     1     -45.632 -16.220 -21.430  0.00  0.00    +0.000 A 
BRANCH  29  31
ATOM     31  C   UNL     1     -46.237 -13.970 -20.660  0.00  0.00    +0.000 C 
ATOM     32  N   UNL     1     -46.285 -12.826 -20.833  0.00  0.00    +0.000 NA
ENDBRANCH  29  31
ENDBRANCH  22  25
ENDBRANCH  19  20
ENDBRANCH   3  19
TORSDOF 7
ENDMDL
MODEL 3
REMARK VINA RESULT:      -6.4      3.176      7.812
REMARK  Name = ZINC000493967022
REMARK  7 active torsions:
REMARK  status: ('A' for Active; 'I' for Inactive)
REMARK    1  A    between atoms: C_2  and  O_25
REMARK    2  A    between atoms: C_5  and  C_6
REMARK    3  A    between atoms: C_7  and  C_8
REMARK    4  A    between atoms: C_9  and  C_10
REMARK    5  A    between atoms: C_9  and  N_28
REMARK    6  A    between atoms: C_12  and  C_13
REMARK    7  A    between atoms: C_17  and  C_18
REMARK                            x       y       z     vdW  Elec       q    Type
REMARK                         _______ _______ _______ _____ _____    ______ ____
ROOT
ATOM      1  C   UNL     1     -45.744 -16.099 -21.131  0.00  0.00    +0.000 C 
ATOM      2  O   UNL     1     -45.663 -15.725 -19.931  0.00  0.00    +0.000 OA
ATOM      3  N   UNL     1     -45.879 -15.140 -22.183  0.00  0.00    +0.000 NA
ENDROOT
BRANCH   1   5
ATOM      4  C   UNL     1     -44.265 -17.989 -21.805  0.00  0.00    +0.000 C 
ATOM      5  C   UNL     1     -45.700 -17.558 -21.447  0.00  0.00    +0.000 C 
ATOM      6  C   UNL     1     -46.148 -18.386 -20.235  0.00  0.00    +0.000 C 
ATOM      7  C   UNL     1     -44.989 -19.263 -19.977  0.00  0.00    +0.000 C 
ATOM      8  C   UNL     1     -42.588 -19.597 -20.717  0.00  0.00    +0.000 C 
ATOM      9  O   UNL     1     -44.941 -20.100 -19.037  0.00  0.00    +0.000 OA
ATOM     10  N   UNL     1     -43.929 -19.058 -20.884  0.00  0.00    +0.000 N 
BRANCH   4  14
ATOM     11  C   UNL     1     -44.085 -19.361 -25.883  0.00  0.00    +0.000 A 
ATOM     12  C   UNL     1     -45.227 -19.578 -25.107  0.00  0.00    +0.000 A 
ATOM     13  C   UNL     1     -45.278 -19.128 -23.783  0.00  0.00    +0.000 A 
ATOM     14  C   UNL     1     -44.187 -18.455 -23.227  0.00  0.00    +0.000 A 
ATOM     15  C   UNL     1     -43.037 -18.239 -23.999  0.00  0.00    +0.000 A 
ATOM     16  C   UNL     1     -42.986 -18.689 -25.322  0.00  0.00    +0.000 A 
BRANCH  11  18
ATOM     17  C   UNL     1     -42.872 -19.908 -27.970  0.00  0.00    +0.000 C 
ATOM     18  O   UNL     1     -44.066 -19.820 -27.203  0.00  0.00    +0.000 OA
ENDBRANCH  11  18
ENDBRANCH   4  14
ENDBRANCH   1   5
BRANCH   3  19
ATOM     19  C   UNL     1     -45.911 -13.711 -21.925  0.00  0.00    +0.000 C 
BRANCH  19  20
ATOM     20  C   UNL     1     -45.780 -12.972 -23.211  0.00  0.00    +0.000 A 
ATOM     21  C   UNL     1     -45.548 -11.363 -24.590  0.00  0.00    +0.000 A 
ATOM     22  C   UNL     1     -45.771 -12.541 -25.276  0.00  0.00    +0.000 A 
ATOM     23  N   UNL     1     -45.560 -11.645 -23.274  0.00  0.00    +0.000 NA
ATOM     24  N   UNL     1     -45.923 -13.560 -24.413  0.00  0.00    +0.000 NA
BRANCH  22  25
ATOM     25  C   UNL     1     -45.848 -12.683 -26.740  0.00  0.00    +0.000 A 
ATOM     26  C   UNL     1     -45.413 -13.860 -27.368  0.00  0.00    +0.000 A 
ATOM     27  C   UNL     1     -45.488 -13.989 -28.757  0.00  0.00    +0.000 A 
ATOM     28  C   UNL     1     -45.997 -12.942 -29.529  0.00  0.00    +0.000 A 
ATOM     29  C   UNL     1     -46.433 -11.766 -28.913  0.00  0.00    +0.000 A 
ATOM     30  C   UNL     1     -46.359 -11.637 -27.522  0.00  0.00    +0.000 A 
BRANCH  29  31
ATOM     31  C   UNL     1     -46.954 -10.690 -29.705  0.00  0.00    +0.000 C 
ATOM     32  N   UNL     1     -47.376  -9.820 -30.345  0.00  0.00    +0.000 NA
ENDBRANCH  29  31
ENDBRANCH  22  25
ENDBRANCH  19  20
ENDBRANCH   3  19
TORSDOF 7
ENDMDL
