MODEL 1
REMARK VINA RESULT:      -7.9      0.000      0.000
REMARK  Name = ZINC000019126373 ZINC19126373 PubChem-92555022
REMARK  3 active torsions:
REMARK  status: ('A' for Active; 'I' for Inactive)
REMARK    1  A    between atoms: C_1  and  C_14
REMARK    2  A    between atoms: C_7  and  C_19
REMARK    3  A    between atoms: C_23  and  C_25
REMARK                            x       y       z     vdW  Elec       q    Type
REMARK                         _______ _______ _______ _____ _____    ______ ____
ROOT
ATOM      1  C   UNL     1     -46.408  -8.505 -30.186  0.00  0.00    +0.000 C 
ATOM      2  O   UNL     1     -47.348  -9.293 -30.481  0.00  0.00    +0.000 OA
ATOM      3  N   UNL     1     -45.044  -8.939 -30.381  0.00  0.00    +0.000 N 
ATOM      4  C   UNL     1     -44.783 -10.250 -30.966  0.00  0.00    +0.000 C 
ATOM      5  C   UNL     1     -44.336 -10.068 -32.412  0.00  0.00    +0.000 C 
ATOM      6  C   UNL     1     -43.113  -9.149 -32.477  0.00  0.00    +0.000 C 
ATOM      7  C   UNL     1     -43.346  -7.811 -31.757  0.00  0.00    +0.000 C 
ATOM      8  C   UNL     1     -43.913  -8.013 -30.347  0.00  0.00    +0.000 C 
ENDROOT
BRANCH   1  14
ATOM      9  C   UNL     1     -47.416  -2.546 -25.937  0.00  0.00    +0.000 C 
ATOM     10  C   UNL     1     -47.302  -3.619 -26.960  0.00  0.00    +0.000 A 
ATOM     11  C   UNL     1     -46.794  -4.895 -26.713  0.00  0.00    +0.000 A 
ATOM     12  C   UNL     1     -46.898  -5.500 -27.946  0.00  0.00    +0.000 A 
ATOM     13  C   UNL     1     -46.547  -6.788 -28.341  0.00  0.00    +0.000 A 
ATOM     14  C   UNL     1     -46.754  -7.152 -29.689  0.00  0.00    +0.000 A 
ATOM     15  C   UNL     1     -47.322  -6.212 -30.583  0.00  0.00    +0.000 A 
ATOM     16  C   UNL     1     -47.669  -4.918 -30.156  0.00  0.00    +0.000 A 
ATOM     17  C   UNL     1     -47.436  -4.600 -28.823  0.00  0.00    +0.000 A 
ATOM     18  O   UNL     1     -47.676  -3.469 -28.216  0.00  0.00    +0.000 OA
ENDBRANCH   1  14
BRANCH   7  19
ATOM     19  C   UNL     1     -44.147  -6.832 -32.565  0.00  0.00    +0.000 A 
ATOM     20  C   UNL     1     -44.972  -7.251 -33.612  0.00  0.00    +0.000 A 
ATOM     21  C   UNL     1     -45.722  -6.296 -34.302  0.00  0.00    +0.000 A 
ATOM     22  N   UNL     1     -45.630  -4.988 -33.947  0.00  0.00    +0.000 NA
ATOM     23  C   UNL     1     -44.820  -4.587 -32.929  0.00  0.00    +0.000 A 
ATOM     24  N   UNL     1     -44.090  -5.512 -32.247  0.00  0.00    +0.000 NA
ATOM     25  N   UNL     1     -46.593  -6.674 -35.371  0.00  0.00    +0.000 N 
ATOM     26  C   UNL     1     -46.421  -7.899 -36.134  0.00  0.00    +0.000 C 
ATOM     27  H   UNL     1     -47.343  -6.078 -35.600  0.00  0.00    +0.000 HD
BRANCH  23  28
ATOM     28  C   UNL     1     -44.741  -3.162 -32.561  0.00  0.00    +0.000 A 
ATOM     29  C   UNL     1     -44.029  -2.254 -33.355  0.00  0.00    +0.000 A 
ATOM     30  C   UNL     1     -43.961  -0.908 -32.996  0.00  0.00    +0.000 A 
ATOM     31  C   UNL     1     -44.611  -0.479 -31.837  0.00  0.00    +0.000 A 
ATOM     32  N   UNL     1     -45.299  -1.368 -31.073  0.00  0.00    +0.000 NA
ATOM     33  C   UNL     1     -45.377  -2.684 -31.406  0.00  0.00    +0.000 A 
ENDBRANCH  23  28
ENDBRANCH   7  19
TORSDOF 3
ENDMDL
MODEL 2
REMARK VINA RESULT:      -7.6      2.560      5.663
REMARK  Name = ZINC000019126373 ZINC19126373 PubChem-92555022
REMARK  3 active torsions:
REMARK  status: ('A' for Active; 'I' for Inactive)
REMARK    1  A    between atoms: C_1  and  C_14
REMARK    2  A    between atoms: C_7  and  C_19
REMARK    3  A    between atoms: C_23  and  C_25
REMARK                            x       y       z     vdW  Elec       q    Type
REMARK                         _______ _______ _______ _____ _____    ______ ____
ROOT
ATOM      1  C   UNL     1     -43.645  -7.746 -31.104  0.00  0.00    +0.000 C 
ATOM      2  O   UNL     1     -42.898  -8.057 -30.135  0.00  0.00    +0.000 OA
ATOM      3  N   UNL     1     -44.834  -8.528 -31.349  0.00  0.00    +0.000 N 
ATOM      4  C   UNL     1     -45.177  -9.619 -30.444  0.00  0.00    +0.000 C 
ATOM      5  C   UNL     1     -46.334  -9.179 -29.553  0.00  0.00    +0.000 C 
ATOM      6  C   UNL     1     -47.524  -8.739 -30.411  0.00  0.00    +0.000 C 
ATOM      7  C   UNL     1     -47.138  -7.672 -31.448  0.00  0.00    +0.000 C 
ATOM      8  C   UNL     1     -45.896  -8.080 -32.249  0.00  0.00    +0.000 C 
ENDROOT
BRANCH   1  14
ATOM      9  C   UNL     1     -42.275  -0.863 -33.412  0.00  0.00    +0.000 C 
ATOM     10  C   UNL     1     -42.495  -2.311 -33.159  0.00  0.00    +0.000 A 
ATOM     11  C   UNL     1     -42.919  -2.845 -31.941  0.00  0.00    +0.000 A 
ATOM     12  C   UNL     1     -42.970  -4.195 -32.210  0.00  0.00    +0.000 A 
ATOM     13  C   UNL     1     -43.324  -5.258 -31.384  0.00  0.00    +0.000 A 
ATOM     14  C   UNL     1     -43.281  -6.563 -31.920  0.00  0.00    +0.000 A 
ATOM     15  C   UNL     1     -42.899  -6.747 -33.271  0.00  0.00    +0.000 A 
ATOM     16  C   UNL     1     -42.547  -5.655 -34.084  0.00  0.00    +0.000 A 
ATOM     17  C   UNL     1     -42.593  -4.389 -33.510  0.00  0.00    +0.000 A 
ATOM     18  O   UNL     1     -42.309  -3.245 -34.072  0.00  0.00    +0.000 OA
ENDBRANCH   1  14
BRANCH   7  19
ATOM     19  C   UNL     1     -47.021  -6.293 -30.868  0.00  0.00    +0.000 A 
ATOM     20  C   UNL     1     -46.920  -5.163 -31.683  0.00  0.00    +0.000 A 
ATOM     21  C   UNL     1     -46.852  -3.903 -31.084  0.00  0.00    +0.000 A 
ATOM     22  N   UNL     1     -46.879  -3.804 -29.730  0.00  0.00    +0.000 NA
ATOM     23  C   UNL     1     -46.972  -4.910 -28.941  0.00  0.00    +0.000 A 
ATOM     24  N   UNL     1     -47.045  -6.141 -29.517  0.00  0.00    +0.000 NA
ATOM     25  N   UNL     1     -46.764  -2.715 -31.874  0.00  0.00    +0.000 N 
ATOM     26  C   UNL     1     -46.256  -2.707 -33.236  0.00  0.00    +0.000 C 
ATOM     27  H   UNL     1     -47.061  -1.864 -31.478  0.00  0.00    +0.000 HD
BRANCH  23  28
ATOM     28  C   UNL     1     -47.003  -4.775 -27.474  0.00  0.00    +0.000 A 
ATOM     29  C   UNL     1     -47.391  -3.570 -26.873  0.00  0.00    +0.000 A 
ATOM     30  C   UNL     1     -47.416  -3.455 -25.483  0.00  0.00    +0.000 A 
ATOM     31  C   UNL     1     -47.050  -4.552 -24.702  0.00  0.00    +0.000 A 
ATOM     32  N   UNL     1     -46.675  -5.716 -25.295  0.00  0.00    +0.000 NA
ATOM     33  C   UNL     1     -46.644  -5.849 -26.648  0.00  0.00    +0.000 A 
ENDBRANCH  23  28
ENDBRANCH   7  19
TORSDOF 3
ENDMDL
MODEL 3
REMARK VINA RESULT:      -7.4      2.910      5.836
REMARK  Name = ZINC000019126373 ZINC19126373 PubChem-92555022
REMARK  3 active torsions:
REMARK  status: ('A' for Active; 'I' for Inactive)
REMARK    1  A    between atoms: C_1  and  C_14
REMARK    2  A    between atoms: C_7  and  C_19
REMARK    3  A    between atoms: C_23  and  C_25
REMARK                            x       y       z     vdW  Elec       q    Type
REMARK                         _______ _______ _______ _____ _____    ______ ____
ROOT
ATOM      1  C   UNL     1     -43.346  -7.369 -28.640  0.00  0.00    +0.000 C 
ATOM      2  O   UNL     1     -42.563  -7.054 -27.702  0.00  0.00    +0.000 OA
ATOM      3  N   UNL     1     -44.320  -8.412 -28.418  0.00  0.00    +0.000 N 
ATOM      4  C   UNL     1     -44.418  -9.036 -27.103  0.00  0.00    +0.000 C 
ATOM      5  C   UNL     1     -45.659  -8.505 -26.393  0.00  0.00    +0.000 C 
ATOM      6  C   UNL     1     -46.905  -8.751 -27.248  0.00  0.00    +0.000 C 
ATOM      7  C   UNL     1     -46.757  -8.197 -28.674  0.00  0.00    +0.000 C 
ATOM      8  C   UNL     1     -45.443  -8.642 -29.326  0.00  0.00    +0.000 C 
ENDROOT
BRANCH   1  14
ATOM      9  C   UNL     1     -43.720  -2.147 -33.852  0.00  0.00    +0.000 C 
ATOM     10  C   UNL     1     -43.555  -3.329 -32.967  0.00  0.00    +0.000 A 
ATOM     11  C   UNL     1     -43.923  -3.365 -31.621  0.00  0.00    +0.000 A 
ATOM     12  C   UNL     1     -43.577  -4.647 -31.252  0.00  0.00    +0.000 A 
ATOM     13  C   UNL     1     -43.698  -5.286 -30.021  0.00  0.00    +0.000 A 
ATOM     14  C   UNL     1     -43.250  -6.620 -29.916  0.00  0.00    +0.000 A 
ATOM     15  C   UNL     1     -42.714  -7.266 -31.057  0.00  0.00    +0.000 A 
ATOM     16  C   UNL     1     -42.605  -6.597 -32.288  0.00  0.00    +0.000 A 
ATOM     17  C   UNL     1     -43.048  -5.279 -32.343  0.00  0.00    +0.000 A 
ATOM     18  O   UNL     1     -43.040  -4.474 -33.371  0.00  0.00    +0.000 OA
ENDBRANCH   1  14
BRANCH   7  19
ATOM     19  C   UNL     1     -46.968  -6.713 -28.761  0.00  0.00    +0.000 A 
ATOM     20  C   UNL     1     -47.170  -6.074 -29.987  0.00  0.00    +0.000 A 
ATOM     21  C   UNL     1     -47.398  -4.696 -29.999  0.00  0.00    +0.000 A 
ATOM     22  N   UNL     1     -47.414  -4.011 -28.827  0.00  0.00    +0.000 NA
ATOM     23  C   UNL     1     -47.211  -4.639 -27.636  0.00  0.00    +0.000 A 
ATOM     24  N   UNL     1     -46.994  -5.983 -27.615  0.00  0.00    +0.000 NA
ATOM     25  N   UNL     1     -47.625  -3.997 -31.225  0.00  0.00    +0.000 N 
ATOM     26  C   UNL     1     -47.170  -4.494 -32.513  0.00  0.00    +0.000 C 
ATOM     27  H   UNL     1     -48.112  -3.142 -31.195  0.00  0.00    +0.000 HD
BRANCH  23  28
ATOM     28  C   UNL     1     -47.237  -3.872 -26.378  0.00  0.00    +0.000 A 
ATOM     29  C   UNL     1     -47.261  -2.472 -26.392  0.00  0.00    +0.000 A 
ATOM     30  C   UNL     1     -47.284  -1.758 -25.195  0.00  0.00    +0.000 A 
ATOM     31  C   UNL     1     -47.283  -2.455 -23.985  0.00  0.00    +0.000 A 
ATOM     32  N   UNL     1     -47.260  -3.814 -23.982  0.00  0.00    +0.000 NA
ATOM     33  C   UNL     1     -47.237  -4.529 -25.140  0.00  0.00    +0.000 A 
ENDBRANCH  23  28
ENDBRANCH   7  19
TORSDOF 3
ENDMDL
