MODEL 1
REMARK VINA RESULT:      -6.6      0.000      0.000
REMARK  Name = ZINC000008861088
REMARK  3 active torsions:
REMARK  status: ('A' for Active; 'I' for Inactive)
REMARK    1  A    between atoms: C_1  and  C_3
REMARK    2  A    between atoms: C_1  and  O_15
REMARK    3  A    between atoms: O_15  and  C_19
REMARK                            x       y       z     vdW  Elec       q    Type
REMARK                         _______ _______ _______ _____ _____    ______ ____
ROOT
ATOM      1  C   UNL     1     -46.014  -3.888 -31.215  0.00  0.00    +0.000 C 
ATOM      2  O   UNL     1     -46.537  -3.362 -30.198  0.00  0.00    +0.000 OA
ENDROOT
BRANCH   1   3
ATOM      3  C   UNL     1     -44.541  -3.839 -31.390  0.00  0.00    +0.000 A 
ATOM      4  C   UNL     1     -43.779  -4.923 -30.937  0.00  0.00    +0.000 A 
ATOM      5  C   UNL     1     -42.394  -4.925 -31.098  0.00  0.00    +0.000 A 
ATOM      6  O   UNL     1     -41.716  -5.901 -30.684  0.00  0.00    +0.000 OA
ATOM      7  N   UNL     1     -41.775  -3.877 -31.701  0.00  0.00    +0.000 N 
ATOM      8  C   UNL     1     -42.472  -2.806 -32.159  0.00  0.00    +0.000 A 
ATOM      9  C   UNL     1     -41.791  -1.747 -32.766  0.00  0.00    +0.000 A 
ATOM     10  C   UNL     1     -42.497  -0.634 -33.232  0.00  0.00    +0.000 A 
ATOM     11  C   UNL     1     -43.884  -0.575 -33.089  0.00  0.00    +0.000 A 
ATOM     12  C   UNL     1     -44.574  -1.630 -32.483  0.00  0.00    +0.000 A 
ATOM     13  C   UNL     1     -43.880  -2.759 -32.018  0.00  0.00    +0.000 A 
ATOM     14  H   UNL     1     -40.796  -3.895 -31.807  0.00  0.00    +0.000 HD
ENDBRANCH   1   3
BRANCH   1  15
ATOM     15  O   UNL     1     -46.859  -4.427 -32.196  0.00  0.00    +0.000 OA
BRANCH  15  19
ATOM     16  C   UNL     1     -46.766  -9.298 -31.766  0.00  0.00    +0.000 C 
ATOM     17  C   UNL     1     -46.622  -8.090 -32.628  0.00  0.00    +0.000 A 
ATOM     18  C   UNL     1     -46.804  -6.831 -32.051  0.00  0.00    +0.000 A 
ATOM     19  C   UNL     1     -46.683  -5.671 -32.817  0.00  0.00    +0.000 A 
ATOM     20  C   UNL     1     -46.356  -5.780 -34.178  0.00  0.00    +0.000 A 
ATOM     21  C   UNL     1     -46.173  -7.031 -34.769  0.00  0.00    +0.000 A 
ATOM     22  C   UNL     1     -45.835  -7.091 -36.218  0.00  0.00    +0.000 C 
ATOM     23  C   UNL     1     -46.306  -8.200 -33.995  0.00  0.00    +0.000 A 
ATOM     24 CL   UNL     1     -46.076  -9.786 -34.734  0.00  0.00    +0.000 Cl
ENDBRANCH  15  19
ENDBRANCH   1  15
TORSDOF 3
ENDMDL
MODEL 2
REMARK VINA RESULT:      -6.6      4.306      6.380
REMARK  Name = ZINC000008861088
REMARK  3 active torsions:
REMARK  status: ('A' for Active; 'I' for Inactive)
REMARK    1  A    between atoms: C_1  and  C_3
REMARK    2  A    between atoms: C_1  and  O_15
REMARK    3  A    between atoms: O_15  and  C_19
REMARK                            x       y       z     vdW  Elec       q    Type
REMARK                         _______ _______ _______ _____ _____    ______ ____
ROOT
ATOM      1  C   UNL     1     -47.078  -4.832 -29.750  0.00  0.00    +0.000 C 
ATOM      2  O   UNL     1     -47.754  -5.434 -30.625  0.00  0.00    +0.000 OA
ENDROOT
BRANCH   1   3
ATOM      3  C   UNL     1     -46.879  -5.456 -28.419  0.00  0.00    +0.000 A 
ATOM      4  C   UNL     1     -46.509  -6.806 -28.364  0.00  0.00    +0.000 A 
ATOM      5  C   UNL     1     -46.295  -7.427 -27.133  0.00  0.00    +0.000 A 
ATOM      6  O   UNL     1     -45.967  -8.640 -27.093  0.00  0.00    +0.000 OA
ATOM      7  N   UNL     1     -46.438  -6.724 -25.980  0.00  0.00    +0.000 N 
ATOM      8  C   UNL     1     -46.792  -5.413 -25.984  0.00  0.00    +0.000 A 
ATOM      9  C   UNL     1     -46.935  -4.732 -24.771  0.00  0.00    +0.000 A 
ATOM     10  C   UNL     1     -47.310  -3.386 -24.762  0.00  0.00    +0.000 A 
ATOM     11  C   UNL     1     -47.546  -2.717 -25.964  0.00  0.00    +0.000 A 
ATOM     12  C   UNL     1     -47.404  -3.389 -27.182  0.00  0.00    +0.000 A 
ATOM     13  C   UNL     1     -47.020  -4.740 -27.208  0.00  0.00    +0.000 A 
ATOM     14  H   UNL     1     -46.283  -7.177 -25.120  0.00  0.00    +0.000 HD
ENDBRANCH   1   3
BRANCH   1  15
ATOM     15  O   UNL     1     -46.609  -3.542 -30.041  0.00  0.00    +0.000 OA
BRANCH  15  19
ATOM     16  C   UNL     1     -42.392  -5.127 -31.942  0.00  0.00    +0.000 C 
ATOM     17  C   UNL     1     -43.356  -4.010 -31.732  0.00  0.00    +0.000 A 
ATOM     18  C   UNL     1     -44.524  -4.262 -31.007  0.00  0.00    +0.000 A 
ATOM     19  C   UNL     1     -45.459  -3.250 -30.787  0.00  0.00    +0.000 A 
ATOM     20  C   UNL     1     -45.207  -1.964 -31.286  0.00  0.00    +0.000 A 
ATOM     21  C   UNL     1     -44.046  -1.697 -32.014  0.00  0.00    +0.000 A 
ATOM     22  C   UNL     1     -43.831  -0.316 -32.530  0.00  0.00    +0.000 C 
ATOM     23  C   UNL     1     -43.110  -2.722 -32.244  0.00  0.00    +0.000 A 
ATOM     24 CL   UNL     1     -41.639  -2.395 -33.164  0.00  0.00    +0.000 Cl
ENDBRANCH  15  19
ENDBRANCH   1  15
TORSDOF 3
ENDMDL
MODEL 3
REMARK VINA RESULT:      -6.5      2.540      3.590
REMARK  Name = ZINC000008861088
REMARK  3 active torsions:
REMARK  status: ('A' for Active; 'I' for Inactive)
REMARK    1  A    between atoms: C_1  and  C_3
REMARK    2  A    between atoms: C_1  and  O_15
REMARK    3  A    between atoms: O_15  and  C_19
REMARK                            x       y       z     vdW  Elec       q    Type
REMARK                         _______ _______ _______ _____ _____    ______ ____
ROOT
ATOM      1  C   UNL     1     -46.642  -3.865 -33.009  0.00  0.00    +0.000 C 
ATOM      2  O   UNL     1     -47.454  -3.872 -33.971  0.00  0.00    +0.000 OA
ENDROOT
BRANCH   1   3
ATOM      3  C   UNL     1     -45.184  -3.922 -33.282  0.00  0.00    +0.000 A 
ATOM      4  C   UNL     1     -44.633  -5.133 -33.719  0.00  0.00    +0.000 A 
ATOM      5  C   UNL     1     -43.271  -5.224 -34.003  0.00  0.00    +0.000 A 
ATOM      6  O   UNL     1     -42.784  -6.317 -34.392  0.00  0.00    +0.000 OA
ATOM      7  N   UNL     1     -42.470  -4.137 -33.862  0.00  0.00    +0.000 N 
ATOM      8  C   UNL     1     -42.959  -2.941 -33.444  0.00  0.00    +0.000 A 
ATOM      9  C   UNL     1     -42.094  -1.851 -33.306  0.00  0.00    +0.000 A 
ATOM     10  C   UNL     1     -42.584  -0.618 -32.866  0.00  0.00    +0.000 A 
ATOM     11  C   UNL     1     -43.938  -0.472 -32.558  0.00  0.00    +0.000 A 
ATOM     12  C   UNL     1     -44.810  -1.557 -32.694  0.00  0.00    +0.000 A 
ATOM     13  C   UNL     1     -44.335  -2.799 -33.144  0.00  0.00    +0.000 A 
ATOM     14  H   UNL     1     -41.510  -4.218 -34.067  0.00  0.00    +0.000 HD
ENDBRANCH   1   3
BRANCH   1  15
ATOM     15  O   UNL     1     -47.153  -3.895 -31.704  0.00  0.00    +0.000 OA
BRANCH  15  19
ATOM     16  C   UNL     1     -47.691  -8.709 -31.031  0.00  0.00    +0.000 C 
ATOM     17  C   UNL     1     -47.342  -7.373 -30.468  0.00  0.00    +0.000 A 
ATOM     18  C   UNL     1     -47.395  -6.259 -31.309  0.00  0.00    +0.000 A 
ATOM     19  C   UNL     1     -47.073  -4.988 -30.831  0.00  0.00    +0.000 A 
ATOM     20  C   UNL     1     -46.712  -4.835 -29.483  0.00  0.00    +0.000 A 
ATOM     21  C   UNL     1     -46.653  -5.939 -28.631  0.00  0.00    +0.000 A 
ATOM     22  C   UNL     1     -46.256  -5.723 -27.212  0.00  0.00    +0.000 C 
ATOM     23  C   UNL     1     -46.968  -7.221 -29.120  0.00  0.00    +0.000 A 
ATOM     24 CL   UNL     1     -46.896  -8.623 -28.050  0.00  0.00    +0.000 Cl
ENDBRANCH  15  19
ENDBRANCH   1  15
TORSDOF 3
ENDMDL
