MODEL 1
REMARK VINA RESULT:      -6.6      0.000      0.000
REMARK  Name = ZINC000032760773
REMARK  3 active torsions:
REMARK  status: ('A' for Active; 'I' for Inactive)
REMARK    1  A    between atoms: N_2  and  C_17
REMARK    2  A    between atoms: C_3  and  C_5
REMARK    3  A    between atoms: C_17  and  C_18
REMARK                            x       y       z     vdW  Elec       q    Type
REMARK                         _______ _______ _______ _____ _____    ______ ____
ROOT
ATOM      1  C   UNL     1     -41.008 -20.883 -21.106  0.00  0.00    +0.000 C 
ATOM      2  N   UNL     1     -41.788 -20.184 -22.119  0.00  0.00    +0.000 N 
ATOM      3  C   UNL     1     -42.429 -20.940 -23.164  0.00  0.00    +0.000 C 
ATOM      4  O   UNL     1     -42.420 -22.201 -23.107  0.00  0.00    +0.000 OA
ENDROOT
BRANCH   3   5
ATOM      5  C   UNL     1     -43.085 -20.278 -24.321  0.00  0.00    +0.000 A 
ATOM      6  C   UNL     1     -44.471 -20.084 -24.292  0.00  0.00    +0.000 A 
ATOM      7  C   UNL     1     -45.115 -19.438 -25.346  0.00  0.00    +0.000 A 
ATOM      8  O   UNL     1     -46.362 -19.273 -25.312  0.00  0.00    +0.000 OA
ATOM      9  N   UNL     1     -44.400 -18.986 -26.408  0.00  0.00    +0.000 N 
ATOM     10  C   UNL     1     -43.054 -19.146 -26.481  0.00  0.00    +0.000 A 
ATOM     11  C   UNL     1     -42.359 -18.669 -27.597  0.00  0.00    +0.000 A 
ATOM     12  C   UNL     1     -40.975 -18.839 -27.687  0.00  0.00    +0.000 A 
ATOM     13  C   UNL     1     -40.280 -19.486 -26.664  0.00  0.00    +0.000 A 
ATOM     14  C   UNL     1     -40.966 -19.965 -25.544  0.00  0.00    +0.000 A 
ATOM     15  C   UNL     1     -42.356 -19.798 -25.434  0.00  0.00    +0.000 A 
ATOM     16  H   UNL     1     -44.870 -18.531 -27.145  0.00  0.00    +0.000 HD
ENDBRANCH   3   5
BRANCH   2  17
ATOM     17  C   UNL     1     -42.123 -18.780 -21.891  0.00  0.00    +0.000 C 
BRANCH  17  18
ATOM     18  C   UNL     1     -43.448 -18.647 -21.216  0.00  0.00    +0.000 A 
ATOM     19  C   UNL     1     -44.403 -17.748 -21.704  0.00  0.00    +0.000 A 
ATOM     20  C   UNL     1     -45.636 -17.616 -21.060  0.00  0.00    +0.000 A 
ATOM     21  C   UNL     1     -45.918 -18.382 -19.925  0.00  0.00    +0.000 A 
ATOM     22  F   UNL     1     -47.115 -18.250 -19.304  0.00  0.00    +0.000 F 
ATOM     23  C   UNL     1     -44.963 -19.279 -19.432  0.00  0.00    +0.000 A 
ATOM     24  F   UNL     1     -45.228 -20.023 -18.330  0.00  0.00    +0.000 F 
ATOM     25  C   UNL     1     -43.730 -19.410 -20.077  0.00  0.00    +0.000 A 
ENDBRANCH  17  18
ENDBRANCH   2  17
TORSDOF 3
ENDMDL
MODEL 2
REMARK VINA RESULT:      -6.6     15.347     17.564
REMARK  Name = ZINC000032760773
REMARK  3 active torsions:
REMARK  status: ('A' for Active; 'I' for Inactive)
REMARK    1  A    between atoms: N_2  and  C_17
REMARK    2  A    between atoms: C_3  and  C_5
REMARK    3  A    between atoms: C_17  and  C_18
REMARK                            x       y       z     vdW  Elec       q    Type
REMARK                         _______ _______ _______ _____ _____    ______ ____
ROOT
ATOM      1  C   UNL     1     -46.507  -5.219 -34.177  0.00  0.00    +0.000 C 
ATOM      2  N   UNL     1     -45.716  -5.597 -33.012  0.00  0.00    +0.000 N 
ATOM      3  C   UNL     1     -46.123  -6.728 -32.218  0.00  0.00    +0.000 C 
ATOM      4  O   UNL     1     -47.075  -7.452 -32.620  0.00  0.00    +0.000 OA
ENDROOT
BRANCH   3   5
ATOM      5  C   UNL     1     -45.468  -7.054 -30.926  0.00  0.00    +0.000 A 
ATOM      6  C   UNL     1     -44.418  -7.980 -30.915  0.00  0.00    +0.000 A 
ATOM      7  C   UNL     1     -43.759  -8.286 -29.725  0.00  0.00    +0.000 A 
ATOM      8  O   UNL     1     -42.820  -9.124 -29.726  0.00  0.00    +0.000 OA
ATOM      9  N   UNL     1     -44.127  -7.683 -28.566  0.00  0.00    +0.000 N 
ATOM     10  C   UNL     1     -45.135  -6.774 -28.526  0.00  0.00    +0.000 A 
ATOM     11  C   UNL     1     -45.484  -6.181 -27.308  0.00  0.00    +0.000 A 
ATOM     12  C   UNL     1     -46.527  -5.253 -27.253  0.00  0.00    +0.000 A 
ATOM     13  C   UNL     1     -47.227  -4.916 -28.413  0.00  0.00    +0.000 A 
ATOM     14  C   UNL     1     -46.885  -5.503 -29.634  0.00  0.00    +0.000 A 
ATOM     15  C   UNL     1     -45.834  -6.432 -29.710  0.00  0.00    +0.000 A 
ATOM     16  H   UNL     1     -43.650  -7.909 -27.735  0.00  0.00    +0.000 HD
ENDBRANCH   3   5
BRANCH   2  17
ATOM     17  C   UNL     1     -44.395  -4.996 -32.846  0.00  0.00    +0.000 C 
BRANCH  17  18
ATOM     18  C   UNL     1     -44.503  -3.552 -32.481  0.00  0.00    +0.000 A 
ATOM     19  C   UNL     1     -45.232  -3.162 -31.352  0.00  0.00    +0.000 A 
ATOM     20  C   UNL     1     -45.343  -1.808 -31.023  0.00  0.00    +0.000 A 
ATOM     21  C   UNL     1     -44.729  -0.840 -31.824  0.00  0.00    +0.000 A 
ATOM     22  F   UNL     1     -44.840   0.471 -31.500  0.00  0.00    +0.000 F 
ATOM     23  C   UNL     1     -44.003  -1.228 -32.957  0.00  0.00    +0.000 A 
ATOM     24  F   UNL     1     -43.406  -0.295 -33.739  0.00  0.00    +0.000 F 
ATOM     25  C   UNL     1     -43.893  -2.583 -33.285  0.00  0.00    +0.000 A 
ENDBRANCH  17  18
ENDBRANCH   2  17
TORSDOF 3
ENDMDL
MODEL 3
REMARK VINA RESULT:      -6.5     15.669     17.506
REMARK  Name = ZINC000032760773
REMARK  3 active torsions:
REMARK  status: ('A' for Active; 'I' for Inactive)
REMARK    1  A    between atoms: N_2  and  C_17
REMARK    2  A    between atoms: C_3  and  C_5
REMARK    3  A    between atoms: C_17  and  C_18
REMARK                            x       y       z     vdW  Elec       q    Type
REMARK                         _______ _______ _______ _____ _____    ______ ____
ROOT
ATOM      1  C   UNL     1     -46.743  -7.166 -31.889  0.00  0.00    +0.000 C 
ATOM      2  N   UNL     1     -45.634  -6.232 -32.032  0.00  0.00    +0.000 N 
ATOM      3  C   UNL     1     -45.631  -5.301 -33.131  0.00  0.00    +0.000 C 
ATOM      4  O   UNL     1     -46.650  -5.217 -33.870  0.00  0.00    +0.000 OA
ENDROOT
BRANCH   3   5
ATOM      5  C   UNL     1     -44.451  -4.450 -33.433  0.00  0.00    +0.000 A 
ATOM      6  C   UNL     1     -43.412  -4.985 -34.204  0.00  0.00    +0.000 A 
ATOM      7  C   UNL     1     -42.304  -4.205 -34.534  0.00  0.00    +0.000 A 
ATOM      8  O   UNL     1     -41.374  -4.697 -35.223  0.00  0.00    +0.000 OA
ATOM      9  N   UNL     1     -42.228  -2.916 -34.113  0.00  0.00    +0.000 N 
ATOM     10  C   UNL     1     -43.212  -2.351 -33.367  0.00  0.00    +0.000 A 
ATOM     11  C   UNL     1     -43.088  -1.021 -32.952  0.00  0.00    +0.000 A 
ATOM     12  C   UNL     1     -44.088  -0.433 -32.175  0.00  0.00    +0.000 A 
ATOM     13  C   UNL     1     -45.216  -1.171 -31.808  0.00  0.00    +0.000 A 
ATOM     14  C   UNL     1     -45.349  -2.499 -32.220  0.00  0.00    +0.000 A 
ATOM     15  C   UNL     1     -44.356  -3.105 -33.007  0.00  0.00    +0.000 A 
ATOM     16  H   UNL     1     -41.439  -2.378 -34.356  0.00  0.00    +0.000 HD
ENDBRANCH   3   5
BRANCH   2  17
ATOM     17  C   UNL     1     -44.707  -6.080 -30.913  0.00  0.00    +0.000 C 
BRANCH  17  18
ATOM     18  C   UNL     1     -45.431  -5.702 -29.663  0.00  0.00    +0.000 A 
ATOM     19  C   UNL     1     -46.410  -4.702 -29.688  0.00  0.00    +0.000 A 
ATOM     20  C   UNL     1     -47.074  -4.342 -28.513  0.00  0.00    +0.000 A 
ATOM     21  C   UNL     1     -46.760  -4.979 -27.308  0.00  0.00    +0.000 A 
ATOM     22  F   UNL     1     -47.408  -4.625 -26.171  0.00  0.00    +0.000 F 
ATOM     23  C   UNL     1     -45.778  -5.976 -27.280  0.00  0.00    +0.000 A 
ATOM     24  F   UNL     1     -45.467  -6.597 -26.115  0.00  0.00    +0.000 F 
ATOM     25  C   UNL     1     -45.114  -6.336 -28.456  0.00  0.00    +0.000 A 
ENDBRANCH  17  18
ENDBRANCH   2  17
TORSDOF 3
ENDMDL
