MODEL 1
REMARK VINA RESULT:      -6.3      0.000      0.000
REMARK  Name = ZINC000015625802 ZINC15625802 CSC026339303 MCULE-7875438388 MolPort-009-499-490 PubChem-26717303
REMARK  6 active torsions:
REMARK  status: ('A' for Active; 'I' for Inactive)
REMARK    1  A    between atoms: C_2  and  O_22
REMARK    2  A    between atoms: C_3  and  O_22
REMARK    3  A    between atoms: C_6  and  O_23
REMARK    4  A    between atoms: C_7  and  O_23
REMARK    5  A    between atoms: C_9  and  N_25
REMARK    6  A    between atoms: C_10  and  C_11
REMARK                            x       y       z     vdW  Elec       q    Type
REMARK                         _______ _______ _______ _____ _____    ______ ____
ROOT
ATOM      1  C   UNL     1     -46.010  -5.077 -32.944  0.00  0.00    +0.000 C 
ATOM      2  O   UNL     1     -45.940  -5.711 -34.030  0.00  0.00    +0.000 OA
ATOM      3  N   UNL     1     -46.939  -5.524 -31.947  0.00  0.00    +0.000 NA
ENDROOT
BRANCH   1   4
ATOM      4  C   UNL     1     -45.182  -3.868 -32.758  0.00  0.00    +0.000 A 
ATOM      5  C   UNL     1     -45.784  -2.617 -32.478  0.00  0.00    +0.000 A 
ATOM      6  C   UNL     1     -45.008  -1.455 -32.323  0.00  0.00    +0.000 A 
ATOM      7  C   UNL     1     -43.628  -1.576 -32.459  0.00  0.00    +0.000 A 
ATOM      8  C   UNL     1     -41.531  -1.196 -32.568  0.00  0.00    +0.000 A 
ATOM      9  C   UNL     1     -40.230  -0.472 -32.543  0.00  0.00    +0.000 C 
ATOM     10  C   UNL     1     -41.688  -2.555 -32.816  0.00  0.00    +0.000 A 
ATOM     11  C   UNL     1     -40.620  -3.554 -33.102  0.00  0.00    +0.000 C 
ATOM     12  C   UNL     1     -43.039  -2.781 -32.742  0.00  0.00    +0.000 A 
ATOM     13  C   UNL     1     -43.781  -3.949 -32.903  0.00  0.00    +0.000 A 
ATOM     14  N   UNL     1     -42.720  -0.586 -32.348  0.00  0.00    +0.000 NA
ENDBRANCH   1   4
BRANCH   3  19
ATOM     15  C   UNL     1     -46.983  -4.403 -28.370  0.00  0.00    +0.000 A 
ATOM     16  C   UNL     1     -46.239  -5.427 -27.768  0.00  0.00    +0.000 A 
ATOM     17  C   UNL     1     -45.733  -6.474 -28.542  0.00  0.00    +0.000 A 
ATOM     18  C   UNL     1     -45.968  -6.514 -29.926  0.00  0.00    +0.000 A 
ATOM     19  C   UNL     1     -46.726  -5.499 -30.529  0.00  0.00    +0.000 A 
ATOM     20  C   UNL     1     -47.216  -4.442 -29.746  0.00  0.00    +0.000 A 
BRANCH  15  21
ATOM     21  O   UNL     1     -47.500  -3.338 -27.625  0.00  0.00    +0.000 OA
BRANCH  21  23
ATOM     22  C   UNL     1     -47.417  -1.859 -25.740  0.00  0.00    +0.000 C 
ATOM     23  C   UNL     1     -47.456  -3.299 -26.206  0.00  0.00    +0.000 C 
ENDBRANCH  21  23
ENDBRANCH  15  21
BRANCH  18  24
ATOM     24  O   UNL     1     -45.462  -7.554 -30.715  0.00  0.00    +0.000 OA
BRANCH  24  25
ATOM     25  C   UNL     1     -45.795  -8.918 -30.498  0.00  0.00    +0.000 C 
ATOM     26  C   UNL     1     -47.264  -9.133 -30.801  0.00  0.00    +0.000 C 
ENDBRANCH  24  25
ENDBRANCH  18  24
ENDBRANCH   3  19
TORSDOF 6
ENDMDL
MODEL 2
REMARK VINA RESULT:      -6.2     12.582     16.278
REMARK  Name = ZINC000015625802 ZINC15625802 CSC026339303 MCULE-7875438388 MolPort-009-499-490 PubChem-26717303
REMARK  6 active torsions:
REMARK  status: ('A' for Active; 'I' for Inactive)
REMARK    1  A    between atoms: C_2  and  O_22
REMARK    2  A    between atoms: C_3  and  O_22
REMARK    3  A    between atoms: C_6  and  O_23
REMARK    4  A    between atoms: C_7  and  O_23
REMARK    5  A    between atoms: C_9  and  N_25
REMARK    6  A    between atoms: C_10  and  C_11
REMARK                            x       y       z     vdW  Elec       q    Type
REMARK                         _______ _______ _______ _____ _____    ______ ____
ROOT
ATOM      1  C   UNL     1     -45.763 -18.380 -24.771  0.00  0.00    +0.000 C 
ATOM      2  O   UNL     1     -46.652 -19.148 -25.225  0.00  0.00    +0.000 OA
ATOM      3  N   UNL     1     -45.550 -17.119 -25.418  0.00  0.00    +0.000 NA
ENDROOT
BRANCH   1   4
ATOM      4  C   UNL     1     -44.934 -18.827 -23.632  0.00  0.00    +0.000 A 
ATOM      5  C   UNL     1     -43.804 -19.654 -23.842  0.00  0.00    +0.000 A 
ATOM      6  C   UNL     1     -43.022 -20.104 -22.765  0.00  0.00    +0.000 A 
ATOM      7  C   UNL     1     -43.400 -19.714 -21.483  0.00  0.00    +0.000 A 
ATOM      8  C   UNL     1     -43.526 -19.434 -19.372  0.00  0.00    +0.000 A 
ATOM      9  C   UNL     1     -43.208 -19.526 -17.920  0.00  0.00    +0.000 C 
ATOM     10  C   UNL     1     -44.596 -18.734 -19.915  0.00  0.00    +0.000 A 
ATOM     11  C   UNL     1     -45.629 -17.944 -19.186  0.00  0.00    +0.000 C 
ATOM     12  C   UNL     1     -44.500 -18.924 -21.270  0.00  0.00    +0.000 A 
ATOM     13  C   UNL     1     -45.296 -18.463 -22.318  0.00  0.00    +0.000 A 
ATOM     14  N   UNL     1     -42.785 -20.041 -20.330  0.00  0.00    +0.000 NA
ENDBRANCH   1   4
BRANCH   3  19
ATOM     15  C   UNL     1     -45.741 -14.126 -23.167  0.00  0.00    +0.000 A 
ATOM     16  C   UNL     1     -44.583 -13.437 -23.554  0.00  0.00    +0.000 A 
ATOM     17  C   UNL     1     -43.753 -13.962 -24.547  0.00  0.00    +0.000 A 
ATOM     18  C   UNL     1     -44.065 -15.185 -25.162  0.00  0.00    +0.000 A 
ATOM     19  C   UNL     1     -45.214 -15.885 -24.766  0.00  0.00    +0.000 A 
ATOM     20  C   UNL     1     -46.053 -15.341 -23.780  0.00  0.00    +0.000 A 
BRANCH  15  21
ATOM     21  O   UNL     1     -46.597 -13.626 -22.180  0.00  0.00    +0.000 OA
BRANCH  21  23
ATOM     22  C   UNL     1     -47.587 -13.356 -20.014  0.00  0.00    +0.000 C 
ATOM     23  C   UNL     1     -46.745 -14.241 -20.909  0.00  0.00    +0.000 C 
ENDBRANCH  21  23
ENDBRANCH  15  21
BRANCH  18  24
ATOM     24  O   UNL     1     -43.246 -15.720 -26.163  0.00  0.00    +0.000 OA
BRANCH  24  25
ATOM     25  C   UNL     1     -42.023 -16.388 -25.882  0.00  0.00    +0.000 C 
ATOM     26  C   UNL     1     -42.052 -17.772 -26.496  0.00  0.00    +0.000 C 
ENDBRANCH  24  25
ENDBRANCH  18  24
ENDBRANCH   3  19
TORSDOF 6
ENDMDL
MODEL 3
REMARK VINA RESULT:      -5.9     13.429     17.260
REMARK  Name = ZINC000015625802 ZINC15625802 CSC026339303 MCULE-7875438388 MolPort-009-499-490 PubChem-26717303
REMARK  6 active torsions:
REMARK  status: ('A' for Active; 'I' for Inactive)
REMARK    1  A    between atoms: C_2  and  O_22
REMARK    2  A    between atoms: C_3  and  O_22
REMARK    3  A    between atoms: C_6  and  O_23
REMARK    4  A    between atoms: C_7  and  O_23
REMARK    5  A    between atoms: C_9  and  N_25
REMARK    6  A    between atoms: C_10  and  C_11
REMARK                            x       y       z     vdW  Elec       q    Type
REMARK                         _______ _______ _______ _____ _____    ______ ____
ROOT
ATOM      1  C   UNL     1     -45.411 -19.143 -25.195  0.00  0.00    +0.000 C 
ATOM      2  O   UNL     1     -46.669 -19.146 -25.139  0.00  0.00    +0.000 OA
ATOM      3  N   UNL     1     -44.781 -18.971 -26.472  0.00  0.00    +0.000 NA
ENDROOT
BRANCH   1   4
ATOM      4  C   UNL     1     -44.632 -19.376 -23.962  0.00  0.00    +0.000 A 
ATOM      5  C   UNL     1     -43.522 -20.256 -23.964  0.00  0.00    +0.000 A 
ATOM      6  C   UNL     1     -42.788 -20.503 -22.791  0.00  0.00    +0.000 A 
ATOM      7  C   UNL     1     -43.193 -19.858 -21.626  0.00  0.00    +0.000 A 
ATOM      8  C   UNL     1     -43.374 -19.162 -19.617  0.00  0.00    +0.000 A 
ATOM      9  C   UNL     1     -43.104 -18.973 -18.166  0.00  0.00    +0.000 C 
ATOM     10  C   UNL     1     -44.405 -18.558 -20.326  0.00  0.00    +0.000 A 
ATOM     11  C   UNL     1     -45.435 -17.615 -19.805  0.00  0.00    +0.000 C 
ATOM     12  C   UNL     1     -44.274 -19.014 -21.613  0.00  0.00    +0.000 A 
ATOM     13  C   UNL     1     -45.022 -18.751 -22.759  0.00  0.00    +0.000 A 
ATOM     14  N   UNL     1     -42.624 -19.965 -20.410  0.00  0.00    +0.000 NA
ENDBRANCH   1   4
BRANCH   3  19
ATOM     15  C   UNL     1     -41.182 -18.214 -27.205  0.00  0.00    +0.000 A 
ATOM     16  C   UNL     1     -41.191 -16.815 -27.129  0.00  0.00    +0.000 A 
ATOM     17  C   UNL     1     -42.377 -16.135 -26.840  0.00  0.00    +0.000 A 
ATOM     18  C   UNL     1     -43.570 -16.844 -26.630  0.00  0.00    +0.000 A 
ATOM     19  C   UNL     1     -43.568 -18.245 -26.720  0.00  0.00    +0.000 A 
ATOM     20  C   UNL     1     -42.369 -18.920 -26.992  0.00  0.00    +0.000 A 
BRANCH  15  21
ATOM     21  O   UNL     1     -40.012 -18.926 -27.486  0.00  0.00    +0.000 OA
BRANCH  21  23
ATOM     22  C   UNL     1     -39.930 -19.191 -29.867  0.00  0.00    +0.000 C 
ATOM     23  C   UNL     1     -39.930 -19.891 -28.524  0.00  0.00    +0.000 C 
ENDBRANCH  21  23
ENDBRANCH  15  21
BRANCH  18  24
ATOM     24  O   UNL     1     -44.765 -16.178 -26.333  0.00  0.00    +0.000 OA
BRANCH  24  25
ATOM     25  C   UNL     1     -44.974 -15.479 -25.113  0.00  0.00    +0.000 C 
ATOM     26  C   UNL     1     -46.437 -15.564 -24.729  0.00  0.00    +0.000 C 
ENDBRANCH  24  25
ENDBRANCH  18  24
ENDBRANCH   3  19
TORSDOF 6
ENDMDL
