MODEL 1
REMARK VINA RESULT:      -6.2      0.000      0.000
REMARK  Name = ZINC000014182987 MolPort-009-650-068
REMARK  2 active torsions:
REMARK  status: ('A' for Active; 'I' for Inactive)
REMARK    1  A    between atoms: C_2  and  C_5
REMARK    2  A    between atoms: C_20  and  C_22
REMARK                            x       y       z     vdW  Elec       q    Type
REMARK                         _______ _______ _______ _____ _____    ______ ____
ROOT
ATOM      1  O   UNL     1     -43.039  -6.160 -34.760  0.00  0.00    +0.000 OA
ATOM      2  C   UNL     1     -43.451  -5.762 -33.638  0.00  0.00    +0.000 C 
ATOM      3  N   UNL     1     -43.047  -6.482 -32.466  0.00  0.00    +0.000 N 
ATOM      4  H   UNL     1     -42.201  -6.983 -32.512  0.00  0.00    +0.000 HD
ATOM      5  C   UNL     1     -43.775  -6.530 -31.236  0.00  0.00    +0.000 A 
ATOM      6  N   UNL     1     -45.034  -7.003 -31.116  0.00  0.00    +0.000 NA
ATOM      7  N   UNL     1     -45.477  -6.995 -29.861  0.00  0.00    +0.000 NA
ATOM      8  C   UNL     1     -44.570  -6.527 -28.974  0.00  0.00    +0.000 A 
ATOM      9  S   UNL     1     -43.129  -6.096 -29.746  0.00  0.00    +0.000 S 
ENDROOT
BRANCH   2  10
ATOM     10  C   UNL     1     -44.273  -4.530 -33.557  0.00  0.00    +0.000 A 
ATOM     11  C   UNL     1     -45.660  -4.637 -33.721  0.00  0.00    +0.000 A 
ATOM     12  C   UNL     1     -46.468  -3.505 -33.625  0.00  0.00    +0.000 A 
ATOM     13  O   UNL     1     -47.713  -3.607 -33.779  0.00  0.00    +0.000 OA
ATOM     14  N   UNL     1     -45.915  -2.291 -33.364  0.00  0.00    +0.000 N 
ATOM     15  C   UNL     1     -44.577  -2.140 -33.192  0.00  0.00    +0.000 A 
ATOM     16  C   UNL     1     -44.052  -0.871 -32.930  0.00  0.00    +0.000 A 
ATOM     17  C   UNL     1     -42.675  -0.702 -32.761  0.00  0.00    +0.000 A 
ATOM     18  C   UNL     1     -41.818  -1.801 -32.855  0.00  0.00    +0.000 A 
ATOM     19  C   UNL     1     -42.335  -3.073 -33.117  0.00  0.00    +0.000 A 
ATOM     20  C   UNL     1     -43.715  -3.261 -33.281  0.00  0.00    +0.000 A 
ATOM     21  H   UNL     1     -46.500  -1.501 -33.299  0.00  0.00    +0.000 HD
ENDBRANCH   2  10
BRANCH   8  22
ATOM     22  C   UNL     1     -44.850  -6.433 -27.505  0.00  0.00    +0.000 C 
ATOM     23  C   UNL     1     -43.729  -7.023 -26.642  0.00  0.00    +0.000 C 
ATOM     24  C   UNL     1     -43.793  -8.550 -26.592  0.00  0.00    +0.000 C 
ATOM     25  C   UNL     1     -45.163  -9.007 -26.109  0.00  0.00    +0.000 C 
ATOM     26  C   UNL     1     -46.242  -8.506 -27.062  0.00  0.00    +0.000 C 
ATOM     27  C   UNL     1     -46.231  -6.979 -27.122  0.00  0.00    +0.000 C 
ENDBRANCH   8  22
TORSDOF 2
ENDMDL
MODEL 2
REMARK VINA RESULT:      -6.2      3.946      5.721
REMARK  Name = ZINC000014182987 MolPort-009-650-068
REMARK  2 active torsions:
REMARK  status: ('A' for Active; 'I' for Inactive)
REMARK    1  A    between atoms: C_2  and  C_5
REMARK    2  A    between atoms: C_20  and  C_22
REMARK                            x       y       z     vdW  Elec       q    Type
REMARK                         _______ _______ _______ _____ _____    ______ ____
ROOT
ATOM      1  O   UNL     1     -42.544  -5.867 -28.517  0.00  0.00    +0.000 OA
ATOM      2  C   UNL     1     -43.520  -6.659 -28.430  0.00  0.00    +0.000 C 
ATOM      3  N   UNL     1     -43.265  -8.068 -28.497  0.00  0.00    +0.000 N 
ATOM      4  H   UNL     1     -42.373  -8.381 -28.224  0.00  0.00    +0.000 HD
ATOM      5  C   UNL     1     -44.205  -9.056 -28.930  0.00  0.00    +0.000 A 
ATOM      6  N   UNL     1     -44.772  -9.080 -30.156  0.00  0.00    +0.000 NA
ATOM      7  N   UNL     1     -45.571 -10.129 -30.340  0.00  0.00    +0.000 NA
ATOM      8  C   UNL     1     -45.636 -10.950 -29.268  0.00  0.00    +0.000 A 
ATOM      9  S   UNL     1     -44.661 -10.385 -28.007  0.00  0.00    +0.000 S 
ENDROOT
BRANCH   2  10
ATOM     10  C   UNL     1     -44.879  -6.119 -28.188  0.00  0.00    +0.000 A 
ATOM     11  C   UNL     1     -45.382  -6.125 -26.880  0.00  0.00    +0.000 A 
ATOM     12  C   UNL     1     -46.645  -5.601 -26.610  0.00  0.00    +0.000 A 
ATOM     13  O   UNL     1     -47.092  -5.615 -25.434  0.00  0.00    +0.000 OA
ATOM     14  N   UNL     1     -47.395  -5.074 -27.613  0.00  0.00    +0.000 N 
ATOM     15  C   UNL     1     -46.948  -5.040 -28.895  0.00  0.00    +0.000 A 
ATOM     16  C   UNL     1     -47.756  -4.493 -29.896  0.00  0.00    +0.000 A 
ATOM     17  C   UNL     1     -47.310  -4.463 -31.220  0.00  0.00    +0.000 A 
ATOM     18  C   UNL     1     -46.055  -4.981 -31.548  0.00  0.00    +0.000 A 
ATOM     19  C   UNL     1     -45.241  -5.531 -30.554  0.00  0.00    +0.000 A 
ATOM     20  C   UNL     1     -45.671  -5.562 -29.218  0.00  0.00    +0.000 A 
ATOM     21  H   UNL     1     -48.285  -4.707 -27.405  0.00  0.00    +0.000 HD
ENDBRANCH   2  10
BRANCH   8  22
ATOM     22  C   UNL     1     -46.470 -12.194 -29.252  0.00  0.00    +0.000 C 
ATOM     23  C   UNL     1     -46.984 -12.555 -27.853  0.00  0.00    +0.000 C 
ATOM     24  C   UNL     1     -45.902 -13.227 -27.006  0.00  0.00    +0.000 C 
ATOM     25  C   UNL     1     -45.350 -14.450 -27.726  0.00  0.00    +0.000 C 
ATOM     26  C   UNL     1     -44.735 -14.035 -29.057  0.00  0.00    +0.000 C 
ATOM     27  C   UNL     1     -45.791 -13.381 -29.948  0.00  0.00    +0.000 C 
ENDBRANCH   8  22
TORSDOF 2
ENDMDL
MODEL 3
REMARK VINA RESULT:      -6.2     10.712     15.417
REMARK  Name = ZINC000014182987 MolPort-009-650-068
REMARK  2 active torsions:
REMARK  status: ('A' for Active; 'I' for Inactive)
REMARK    1  A    between atoms: C_2  and  C_5
REMARK    2  A    between atoms: C_20  and  C_22
REMARK                            x       y       z     vdW  Elec       q    Type
REMARK                         _______ _______ _______ _____ _____    ______ ____
ROOT
ATOM      1  O   UNL     1     -46.023 -17.699 -20.224  0.00  0.00    +0.000 OA
ATOM      2  C   UNL     1     -45.573 -17.287 -21.326  0.00  0.00    +0.000 C 
ATOM      3  N   UNL     1     -45.481 -15.872 -21.541  0.00  0.00    +0.000 N 
ATOM      4  H   UNL     1     -45.394 -15.298 -20.746  0.00  0.00    +0.000 HD
ATOM      5  C   UNL     1     -45.506 -15.229 -22.818  0.00  0.00    +0.000 A 
ATOM      6  N   UNL     1     -46.533 -15.315 -23.693  0.00  0.00    +0.000 NA
ATOM      7  N   UNL     1     -46.346 -14.585 -24.790  0.00  0.00    +0.000 NA
ATOM      8  C   UNL     1     -45.177 -13.905 -24.790  0.00  0.00    +0.000 A 
ATOM      9  S   UNL     1     -44.304 -14.193 -23.371  0.00  0.00    +0.000 S 
ENDROOT
BRANCH   2  10
ATOM     10  C   UNL     1     -45.087 -18.265 -22.328  0.00  0.00    +0.000 A 
ATOM     11  C   UNL     1     -45.823 -18.440 -23.507  0.00  0.00    +0.000 A 
ATOM     12  C   UNL     1     -45.383 -19.332 -24.484  0.00  0.00    +0.000 A 
ATOM     13  O   UNL     1     -46.052 -19.488 -25.539  0.00  0.00    +0.000 OA
ATOM     14  N   UNL     1     -44.233 -20.032 -24.303  0.00  0.00    +0.000 N 
ATOM     15  C   UNL     1     -43.482 -19.891 -23.180  0.00  0.00    +0.000 A 
ATOM     16  C   UNL     1     -42.308 -20.635 -23.033  0.00  0.00    +0.000 A 
ATOM     17  C   UNL     1     -41.534 -20.505 -21.877  0.00  0.00    +0.000 A 
ATOM     18  C   UNL     1     -41.933 -19.632 -20.862  0.00  0.00    +0.000 A 
ATOM     19  C   UNL     1     -43.105 -18.885 -21.000  0.00  0.00    +0.000 A 
ATOM     20  C   UNL     1     -43.890 -18.997 -22.158  0.00  0.00    +0.000 A 
ATOM     21  H   UNL     1     -43.935 -20.657 -25.003  0.00  0.00    +0.000 HD
ENDBRANCH   2  10
BRANCH   8  22
ATOM     22  C   UNL     1     -44.761 -13.015 -25.921  0.00  0.00    +0.000 C 
ATOM     23  C   UNL     1     -45.931 -12.236 -26.534  0.00  0.00    +0.000 C 
ATOM     24  C   UNL     1     -46.761 -13.107 -27.478  0.00  0.00    +0.000 C 
ATOM     25  C   UNL     1     -45.873 -13.714 -28.557  0.00  0.00    +0.000 C 
ATOM     26  C   UNL     1     -44.798 -14.582 -27.916  0.00  0.00    +0.000 C 
ATOM     27  C   UNL     1     -43.925 -13.744 -26.981  0.00  0.00    +0.000 C 
ENDBRANCH   8  22
TORSDOF 2
ENDMDL
