MODEL 1
REMARK VINA RESULT:      -7.3      0.000      0.000
REMARK  Name = ZINC000257179241
REMARK  3 active torsions:
REMARK  status: ('A' for Active; 'I' for Inactive)
REMARK    1  A    between atoms: C_1  and  C_20
REMARK    2  A    between atoms: C_7  and  C_22
REMARK    3  A    between atoms: C_24  and  C_27
REMARK                            x       y       z     vdW  Elec       q    Type
REMARK                         _______ _______ _______ _____ _____    ______ ____
ROOT
ATOM      1  C   UNL     1     -42.619  -7.143 -28.501  0.00  0.00    +0.000 C 
ATOM      2  O   UNL     1     -42.436  -5.922 -28.751  0.00  0.00    +0.000 OA
ATOM      3  N   UNL     1     -43.386  -7.947 -29.424  0.00  0.00    +0.000 N 
ATOM      4  C   UNL     1     -43.547  -7.518 -30.811  0.00  0.00    +0.000 C 
ATOM      5  C   UNL     1     -44.480  -6.317 -30.926  0.00  0.00    +0.000 C 
ATOM      6  C   UNL     1     -45.935  -6.753 -31.019  0.00  0.00    +0.000 C 
ATOM      7  C   UNL     1     -46.488  -7.097 -29.643  0.00  0.00    +0.000 C 
ATOM      8  C   UNL     1     -47.634  -8.092 -29.741  0.00  0.00    +0.000 C 
ATOM      9  C   UNL     1     -47.119  -9.462 -30.163  0.00  0.00    +0.000 C 
ATOM     10  N   UNL     1     -46.968 -10.353 -29.018  0.00  0.00    +0.000 N 
ATOM     11  C   UNL     1     -45.955 -10.233 -28.010  0.00  0.00    +0.000 C 
ATOM     12  O   UNL     1     -45.868 -11.116 -27.118  0.00  0.00    +0.000 OA
ATOM     13  C   UNL     1     -45.001  -9.088 -27.989  0.00  0.00    +0.000 C 
ATOM     14  C   UNL     1     -43.939  -9.249 -29.065  0.00  0.00    +0.000 C 
ATOM     15  H   UNL     1     -47.610 -11.093 -28.930  0.00  0.00    +0.000 HD
ENDROOT
BRANCH   1  20
ATOM     16  C   UNL     1     -41.287  -8.428 -23.455  0.00  0.00    +0.000 C 
ATOM     17  C   UNL     1     -41.405  -8.273 -24.927  0.00  0.00    +0.000 A 
ATOM     18  C   UNL     1     -40.571  -8.867 -25.863  0.00  0.00    +0.000 A 
ATOM     19  C   UNL     1     -40.918  -8.538 -27.181  0.00  0.00    +0.000 A 
ATOM     20  C   UNL     1     -42.026  -7.699 -27.267  0.00  0.00    +0.000 A 
ATOM     21  S   UNL     1     -42.563  -7.346 -25.710  0.00  0.00    +0.000 S 
ENDBRANCH   1  20
BRANCH   7  22
ATOM     22  C   UNL     1     -46.912  -5.867 -28.916  0.00  0.00    +0.000 A 
ATOM     23  N   UNL     1     -46.690  -5.667 -27.603  0.00  0.00    +0.000 NA
ATOM     24  C   UNL     1     -47.236  -4.446 -27.426  0.00  0.00    +0.000 A 
ATOM     25  N   UNL     1     -47.755  -3.942 -28.564  0.00  0.00    +0.000 NA
ATOM     26  O   UNL     1     -47.534  -4.852 -29.463  0.00  0.00    +0.000 OA
BRANCH  24  27
ATOM     27  C   UNL     1     -47.257  -3.742 -26.135  0.00  0.00    +0.000 A 
ATOM     28  C   UNL     1     -47.346  -2.344 -26.091  0.00  0.00    +0.000 A 
ATOM     29  C   UNL     1     -47.365  -1.675 -24.863  0.00  0.00    +0.000 A 
ATOM     30  C   UNL     1     -47.295  -2.401 -23.671  0.00  0.00    +0.000 A 
ATOM     31  C   UNL     1     -47.206  -3.796 -23.707  0.00  0.00    +0.000 A 
ATOM     32  C   UNL     1     -47.187  -4.464 -24.935  0.00  0.00    +0.000 A 
ENDBRANCH  24  27
ENDBRANCH   7  22
TORSDOF 3
ENDMDL
MODEL 2
REMARK VINA RESULT:      -7.0      9.377     12.661
REMARK  Name = ZINC000257179241
REMARK  3 active torsions:
REMARK  status: ('A' for Active; 'I' for Inactive)
REMARK    1  A    between atoms: C_1  and  C_20
REMARK    2  A    between atoms: C_7  and  C_22
REMARK    3  A    between atoms: C_24  and  C_27
REMARK                            x       y       z     vdW  Elec       q    Type
REMARK                         _______ _______ _______ _____ _____    ______ ____
ROOT
ATOM      1  C   UNL     1     -45.147 -16.920 -25.557  0.00  0.00    +0.000 C 
ATOM      2  O   UNL     1     -46.245 -17.323 -25.089  0.00  0.00    +0.000 OA
ATOM      3  N   UNL     1     -44.110 -17.881 -25.856  0.00  0.00    +0.000 N 
ATOM      4  C   UNL     1     -44.452 -19.285 -26.069  0.00  0.00    +0.000 C 
ATOM      5  C   UNL     1     -44.852 -19.972 -24.766  0.00  0.00    +0.000 C 
ATOM      6  C   UNL     1     -43.635 -20.505 -24.026  0.00  0.00    +0.000 C 
ATOM      7  C   UNL     1     -42.932 -19.391 -23.264  0.00  0.00    +0.000 C 
ATOM      8  C   UNL     1     -41.457 -19.704 -23.063  0.00  0.00    +0.000 C 
ATOM      9  C   UNL     1     -40.708 -19.626 -24.388  0.00  0.00    +0.000 C 
ATOM     10  N   UNL     1     -40.011 -18.353 -24.533  0.00  0.00    +0.000 N 
ATOM     11  C   UNL     1     -40.646 -17.089 -24.765  0.00  0.00    +0.000 C 
ATOM     12  O   UNL     1     -39.933 -16.070 -24.965  0.00  0.00    +0.000 OA
ATOM     13  C   UNL     1     -42.129 -16.946 -24.775  0.00  0.00    +0.000 C 
ATOM     14  C   UNL     1     -42.717 -17.500 -26.063  0.00  0.00    +0.000 C 
ATOM     15  H   UNL     1     -39.029 -18.362 -24.467  0.00  0.00    +0.000 HD
ENDROOT
BRANCH   1  20
ATOM     16  C   UNL     1     -44.473 -11.985 -27.577  0.00  0.00    +0.000 C 
ATOM     17  C   UNL     1     -44.646 -13.192 -26.729  0.00  0.00    +0.000 A 
ATOM     18  C   UNL     1     -44.639 -13.202 -25.342  0.00  0.00    +0.000 A 
ATOM     19  C   UNL     1     -44.820 -14.487 -24.811  0.00  0.00    +0.000 A 
ATOM     20  C   UNL     1     -44.975 -15.470 -25.786  0.00  0.00    +0.000 A 
ATOM     21  S   UNL     1     -44.868 -14.752 -27.305  0.00  0.00    +0.000 S 
ENDBRANCH   1  20
BRANCH   7  22
ATOM     22  C   UNL     1     -43.602 -19.132 -21.958  0.00  0.00    +0.000 A 
ATOM     23  N   UNL     1     -44.262 -17.992 -21.676  0.00  0.00    +0.000 NA
ATOM     24  C   UNL     1     -44.682 -18.237 -20.416  0.00  0.00    +0.000 A 
ATOM     25  N   UNL     1     -44.298 -19.449 -19.969  0.00  0.00    +0.000 NA
ATOM     26  O   UNL     1     -43.632 -19.972 -20.953  0.00  0.00    +0.000 OA
BRANCH  24  27
ATOM     27  C   UNL     1     -45.477 -17.285 -19.624  0.00  0.00    +0.000 A 
ATOM     28  C   UNL     1     -44.871 -16.157 -19.055  0.00  0.00    +0.000 A 
ATOM     29  C   UNL     1     -45.626 -15.253 -18.302  0.00  0.00    +0.000 A 
ATOM     30  C   UNL     1     -46.994 -15.474 -18.113  0.00  0.00    +0.000 A 
ATOM     31  C   UNL     1     -47.605 -16.597 -18.677  0.00  0.00    +0.000 A 
ATOM     32  C   UNL     1     -46.849 -17.500 -19.431  0.00  0.00    +0.000 A 
ENDBRANCH  24  27
ENDBRANCH   7  22
TORSDOF 3
ENDMDL
MODEL 3
REMARK VINA RESULT:      -6.9      3.504      4.852
REMARK  Name = ZINC000257179241
REMARK  3 active torsions:
REMARK  status: ('A' for Active; 'I' for Inactive)
REMARK    1  A    between atoms: C_1  and  C_20
REMARK    2  A    between atoms: C_7  and  C_22
REMARK    3  A    between atoms: C_24  and  C_27
REMARK                            x       y       z     vdW  Elec       q    Type
REMARK                         _______ _______ _______ _____ _____    ______ ____
ROOT
ATOM      1  C   UNL     1     -42.528  -5.594 -31.668  0.00  0.00    +0.000 C 
ATOM      2  O   UNL     1     -42.230  -4.934 -30.637  0.00  0.00    +0.000 OA
ATOM      3  N   UNL     1     -43.265  -4.952 -32.732  0.00  0.00    +0.000 N 
ATOM      4  C   UNL     1     -43.262  -3.497 -32.850  0.00  0.00    +0.000 C 
ATOM      5  C   UNL     1     -44.087  -2.840 -31.747  0.00  0.00    +0.000 C 
ATOM      6  C   UNL     1     -45.555  -2.749 -32.135  0.00  0.00    +0.000 C 
ATOM      7  C   UNL     1     -46.258  -4.081 -31.916  0.00  0.00    +0.000 C 
ATOM      8  C   UNL     1     -47.463  -4.227 -32.833  0.00  0.00    +0.000 C 
ATOM      9  C   UNL     1     -47.016  -4.403 -34.279  0.00  0.00    +0.000 C 
ATOM     10  N   UNL     1     -47.040  -5.806 -34.679  0.00  0.00    +0.000 N 
ATOM     11  C   UNL     1     -46.120  -6.806 -34.225  0.00  0.00    +0.000 C 
ATOM     12  O   UNL     1     -46.183  -7.966 -34.711  0.00  0.00    +0.000 OA
ATOM     13  C   UNL     1     -45.088  -6.512 -33.192  0.00  0.00    +0.000 C 
ATOM     14  C   UNL     1     -43.946  -5.701 -33.782  0.00  0.00    +0.000 C 
ATOM     15  H   UNL     1     -47.742  -6.086 -35.309  0.00  0.00    +0.000 HD
ENDROOT
BRANCH   1  20
ATOM     16  C   UNL     1     -41.746 -10.868 -30.984  0.00  0.00    +0.000 C 
ATOM     17  C   UNL     1     -41.728  -9.443 -31.403  0.00  0.00    +0.000 A 
ATOM     18  C   UNL     1     -40.886  -8.903 -32.364  0.00  0.00    +0.000 A 
ATOM     19  C   UNL     1     -41.090  -7.528 -32.549  0.00  0.00    +0.000 A 
ATOM     20  C   UNL     1     -42.096  -7.006 -31.740  0.00  0.00    +0.000 A 
ATOM     21  S   UNL     1     -42.718  -8.242 -30.780  0.00  0.00    +0.000 S 
ENDBRANCH   1  20
BRANCH   7  22
ATOM     22  C   UNL     1     -46.654  -4.248 -30.489  0.00  0.00    +0.000 A 
ATOM     23  N   UNL     1     -45.969  -5.008 -29.613  0.00  0.00    +0.000 NA
ATOM     24  C   UNL     1     -46.697  -4.834 -28.489  0.00  0.00    +0.000 A 
ATOM     25  N   UNL     1     -47.755  -4.020 -28.678  0.00  0.00    +0.000 NA
ATOM     26  O   UNL     1     -47.693  -3.678 -29.930  0.00  0.00    +0.000 OA
BRANCH  24  27
ATOM     27  C   UNL     1     -46.367  -5.462 -27.201  0.00  0.00    +0.000 A 
ATOM     28  C   UNL     1     -47.011  -5.049 -26.026  0.00  0.00    +0.000 A 
ATOM     29  C   UNL     1     -46.696  -5.646 -24.801  0.00  0.00    +0.000 A 
ATOM     30  C   UNL     1     -45.735  -6.659 -24.744  0.00  0.00    +0.000 A 
ATOM     31  C   UNL     1     -45.089  -7.076 -25.912  0.00  0.00    +0.000 A 
ATOM     32  C   UNL     1     -45.405  -6.480 -27.136  0.00  0.00    +0.000 A 
ENDBRANCH  24  27
ENDBRANCH   7  22
TORSDOF 3
ENDMDL
