MODEL 1
REMARK VINA RESULT:      -6.5      0.000      0.000
REMARK  Name = ZINC000032740599 ZINC32740599 CSC026941728 MCULE-1168912559 MolPort-005-697-480 PubChem-39966225
REMARK  4 active torsions:
REMARK  status: ('A' for Active; 'I' for Inactive)
REMARK    1  A    between atoms: N_1  and  C_22
REMARK    2  A    between atoms: C_2  and  C_5
REMARK    3  A    between atoms: C_17  and  S_24
REMARK    4  A    between atoms: S_24  and  N_28
REMARK                            x       y       z     vdW  Elec       q    Type
REMARK                         _______ _______ _______ _____ _____    ______ ____
ROOT
ATOM      1  N   UNL     1     -44.134 -18.605 -26.178  0.00  0.00    +0.000 N 
ATOM      2  C   UNL     1     -44.840 -19.401 -25.213  0.00  0.00    +0.000 C 
ATOM      3  O   UNL     1     -45.647 -20.275 -25.628  0.00  0.00    +0.000 OA
ATOM      4  H   UNL     1     -43.876 -19.047 -27.019  0.00  0.00    +0.000 HD
ENDROOT
BRANCH   2   5
ATOM      5  C   UNL     1     -44.610 -19.260 -23.760  0.00  0.00    +0.000 A 
ATOM      6  C   UNL     1     -45.439 -18.438 -22.980  0.00  0.00    +0.000 A 
ATOM      7  C   UNL     1     -45.212 -18.296 -21.607  0.00  0.00    +0.000 A 
ATOM      8  C   UNL     1     -44.147 -18.971 -21.007  0.00  0.00    +0.000 A 
ATOM      9  N   UNL     1     -43.913 -18.847 -19.676  0.00  0.00    +0.000 NA
ATOM     10  C   UNL     1     -42.877 -19.496 -19.078  0.00  0.00    +0.000 A 
ATOM     11  C   UNL     1     -42.664 -19.325 -17.612  0.00  0.00    +0.000 C 
ATOM     12  C   UNL     1     -42.032 -20.309 -19.855  0.00  0.00    +0.000 A 
ATOM     13  C   UNL     1     -40.881 -21.041 -19.251  0.00  0.00    +0.000 C 
ATOM     14  N   UNL     1     -42.267 -20.432 -21.190  0.00  0.00    +0.000 NA
ATOM     15  C   UNL     1     -43.302 -19.785 -21.785  0.00  0.00    +0.000 A 
ATOM     16  C   UNL     1     -43.532 -19.924 -23.155  0.00  0.00    +0.000 A 
ENDBRANCH   2   5
BRANCH   1  22
ATOM     17  C   UNL     1     -44.366 -14.865 -26.063  0.00  0.00    +0.000 A 
ATOM     18  C   UNL     1     -43.040 -14.525 -25.790  0.00  0.00    +0.000 A 
ATOM     19  C   UNL     1     -42.077 -15.526 -25.642  0.00  0.00    +0.000 A 
ATOM     20  C   UNL     1     -42.435 -16.874 -25.762  0.00  0.00    +0.000 A 
ATOM     21  C   UNL     1     -41.382 -17.915 -25.601  0.00  0.00    +0.000 C 
ATOM     22  C   UNL     1     -43.771 -17.224 -26.025  0.00  0.00    +0.000 A 
ATOM     23  C   UNL     1     -44.726 -16.210 -26.191  0.00  0.00    +0.000 A 
BRANCH  17  24
ATOM     24  S   UNL     1     -45.578 -13.610 -26.256  0.00  0.00    +0.000 S 
ATOM     25  O   UNL     1     -46.604 -13.731 -25.161  0.00  0.00    +0.000 OA
ATOM     26  O   UNL     1     -44.912 -12.266 -26.145  0.00  0.00    +0.000 OA
BRANCH  24  28
ATOM     27  C   UNL     1     -47.010 -12.505 -28.099  0.00  0.00    +0.000 C 
ATOM     28  N   UNL     1     -46.336 -13.760 -27.810  0.00  0.00    +0.000 NA
ATOM     29  C   UNL     1     -45.284 -13.906 -28.802  0.00  0.00    +0.000 C 
ENDBRANCH  24  28
ENDBRANCH  17  24
ENDBRANCH   1  22
TORSDOF 4
ENDMDL
MODEL 2
REMARK VINA RESULT:      -6.3      1.682      2.550
REMARK  Name = ZINC000032740599 ZINC32740599 CSC026941728 MCULE-1168912559 MolPort-005-697-480 PubChem-39966225
REMARK  4 active torsions:
REMARK  status: ('A' for Active; 'I' for Inactive)
REMARK    1  A    between atoms: N_1  and  C_22
REMARK    2  A    between atoms: C_2  and  C_5
REMARK    3  A    between atoms: C_17  and  S_24
REMARK    4  A    between atoms: S_24  and  N_28
REMARK                            x       y       z     vdW  Elec       q    Type
REMARK                         _______ _______ _______ _____ _____    ______ ____
ROOT
ATOM      1  N   UNL     1     -43.532 -17.866 -26.955  0.00  0.00    +0.000 N 
ATOM      2  C   UNL     1     -44.108 -18.981 -26.257  0.00  0.00    +0.000 C 
ATOM      3  O   UNL     1     -44.752 -19.837 -26.919  0.00  0.00    +0.000 OA
ATOM      4  H   UNL     1     -43.193 -18.034 -27.864  0.00  0.00    +0.000 HD
ENDROOT
BRANCH   2   5
ATOM      5  C   UNL     1     -43.924 -19.178 -24.804  0.00  0.00    +0.000 A 
ATOM      6  C   UNL     1     -42.834 -19.914 -24.313  0.00  0.00    +0.000 A 
ATOM      7  C   UNL     1     -42.668 -20.110 -22.938  0.00  0.00    +0.000 A 
ATOM      8  C   UNL     1     -43.600 -19.577 -22.045  0.00  0.00    +0.000 A 
ATOM      9  N   UNL     1     -43.455 -19.755 -20.707  0.00  0.00    +0.000 NA
ATOM     10  C   UNL     1     -44.356 -19.245 -19.825  0.00  0.00    +0.000 A 
ATOM     11  C   UNL     1     -44.150 -19.470 -18.366  0.00  0.00    +0.000 C 
ATOM     12  C   UNL     1     -45.461 -18.520 -20.310  0.00  0.00    +0.000 A 
ATOM     13  C   UNL     1     -46.480 -17.941 -19.387  0.00  0.00    +0.000 C 
ATOM     14  N   UNL     1     -45.606 -18.342 -21.650  0.00  0.00    +0.000 NA
ATOM     15  C   UNL     1     -44.704 -18.851 -22.530  0.00  0.00    +0.000 A 
ATOM     16  C   UNL     1     -44.865 -18.658 -23.904  0.00  0.00    +0.000 A 
ENDBRANCH   2   5
BRANCH   1  22
ATOM     17  C   UNL     1     -44.409 -14.401 -25.821  0.00  0.00    +0.000 A 
ATOM     18  C   UNL     1     -43.145 -13.895 -25.512  0.00  0.00    +0.000 A 
ATOM     19  C   UNL     1     -42.012 -14.696 -25.674  0.00  0.00    +0.000 A 
ATOM     20  C   UNL     1     -42.136 -16.009 -26.143  0.00  0.00    +0.000 A 
ATOM     21  C   UNL     1     -40.906 -16.834 -26.306  0.00  0.00    +0.000 C 
ATOM     22  C   UNL     1     -43.407 -16.529 -26.446  0.00  0.00    +0.000 A 
ATOM     23  C   UNL     1     -44.535 -15.710 -26.297  0.00  0.00    +0.000 A 
BRANCH  17  24
ATOM     24  S   UNL     1     -45.835 -13.397 -25.625  0.00  0.00    +0.000 S 
ATOM     25  O   UNL     1     -46.728 -13.555 -26.827  0.00  0.00    +0.000 OA
ATOM     26  O   UNL     1     -46.586 -13.848 -24.403  0.00  0.00    +0.000 OA
BRANCH  24  28
ATOM     27  C   UNL     1     -46.339 -10.917 -26.139  0.00  0.00    +0.000 C 
ATOM     28  N   UNL     1     -45.363 -11.737 -25.441  0.00  0.00    +0.000 NA
ATOM     29  C   UNL     1     -45.468 -11.402 -24.031  0.00  0.00    +0.000 C 
ENDBRANCH  24  28
ENDBRANCH  17  24
ENDBRANCH   1  22
TORSDOF 4
ENDMDL
MODEL 3
REMARK VINA RESULT:      -6.2      4.329      7.536
REMARK  Name = ZINC000032740599 ZINC32740599 CSC026941728 MCULE-1168912559 MolPort-005-697-480 PubChem-39966225
REMARK  4 active torsions:
REMARK  status: ('A' for Active; 'I' for Inactive)
REMARK    1  A    between atoms: N_1  and  C_22
REMARK    2  A    between atoms: C_2  and  C_5
REMARK    3  A    between atoms: C_17  and  S_24
REMARK    4  A    between atoms: S_24  and  N_28
REMARK                            x       y       z     vdW  Elec       q    Type
REMARK                         _______ _______ _______ _____ _____    ______ ____
ROOT
ATOM      1  N   UNL     1     -44.163 -18.660 -19.915  0.00  0.00    +0.000 N 
ATOM      2  C   UNL     1     -43.400 -18.542 -21.125  0.00  0.00    +0.000 C 
ATOM      3  O   UNL     1     -42.241 -19.035 -21.157  0.00  0.00    +0.000 OA
ATOM      4  H   UNL     1     -44.044 -19.485 -19.389  0.00  0.00    +0.000 HD
ENDROOT
BRANCH   2   5
ATOM      5  C   UNL     1     -43.950 -17.910 -22.342  0.00  0.00    +0.000 A 
ATOM      6  C   UNL     1     -44.995 -18.518 -23.057  0.00  0.00    +0.000 A 
ATOM      7  C   UNL     1     -45.505 -17.925 -24.215  0.00  0.00    +0.000 A 
ATOM      8  C   UNL     1     -44.968 -16.720 -24.671  0.00  0.00    +0.000 A 
ATOM      9  N   UNL     1     -45.453 -16.127 -25.792  0.00  0.00    +0.000 NA
ATOM     10  C   UNL     1     -44.936 -14.955 -26.251  0.00  0.00    +0.000 A 
ATOM     11  C   UNL     1     -45.506 -14.347 -27.488  0.00  0.00    +0.000 C 
ATOM     12  C   UNL     1     -43.879 -14.347 -25.550  0.00  0.00    +0.000 A 
ATOM     13  C   UNL     1     -43.275 -13.062 -26.010  0.00  0.00    +0.000 C 
ATOM     14  N   UNL     1     -43.393 -14.941 -24.427  0.00  0.00    +0.000 NA
ATOM     15  C   UNL     1     -43.911 -16.110 -23.969  0.00  0.00    +0.000 A 
ATOM     16  C   UNL     1     -43.403 -16.707 -22.813  0.00  0.00    +0.000 A 
ENDBRANCH   2   5
BRANCH   1  22
ATOM     17  C   UNL     1     -45.511 -15.558 -18.298  0.00  0.00    +0.000 A 
ATOM     18  C   UNL     1     -46.884 -15.811 -18.342  0.00  0.00    +0.000 A 
ATOM     19  C   UNL     1     -47.359 -16.998 -18.905  0.00  0.00    +0.000 A 
ATOM     20  C   UNL     1     -46.465 -17.937 -19.431  0.00  0.00    +0.000 A 
ATOM     21  C   UNL     1     -47.006 -19.193 -20.022  0.00  0.00    +0.000 C 
ATOM     22  C   UNL     1     -45.082 -17.684 -19.401  0.00  0.00    +0.000 A 
ATOM     23  C   UNL     1     -44.615 -16.498 -18.816  0.00  0.00    +0.000 A 
BRANCH  17  24
ATOM     24  S   UNL     1     -44.909 -14.071 -17.585  0.00  0.00    +0.000 S 
ATOM     25  O   UNL     1     -45.882 -13.585 -16.544  0.00  0.00    +0.000 OA
ATOM     26  O   UNL     1     -43.589 -14.348 -16.920  0.00  0.00    +0.000 OA
BRANCH  24  28
ATOM     27  C   UNL     1     -44.850 -11.564 -18.202  0.00  0.00    +0.000 C 
ATOM     28  N   UNL     1     -44.700 -12.870 -18.821  0.00  0.00    +0.000 NA
ATOM     29  C   UNL     1     -43.327 -12.954 -19.290  0.00  0.00    +0.000 C 
ENDBRANCH  24  28
ENDBRANCH  17  24
ENDBRANCH   1  22
TORSDOF 4
ENDMDL
