MODEL 1
REMARK VINA RESULT:      -7.8      0.000      0.000
REMARK  Name = ZINC000015869695 MCULE-2885134168 MolPort-007-958-787
REMARK  5 active torsions:
REMARK  status: ('A' for Active; 'I' for Inactive)
REMARK    1  A    between atoms: C_7  and  C_18
REMARK    2  A    between atoms: C_10  and  C_12
REMARK    3  A    between atoms: C_18  and  N_19
REMARK    4  A    between atoms: N_19  and  S_21
REMARK    5  A    between atoms: S_21  and  C_24
REMARK                            x       y       z     vdW  Elec       q    Type
REMARK                         _______ _______ _______ _____ _____    ______ ____
ROOT
ATOM      1  N   UNL     1     -46.169  -8.778 -28.420  0.00  0.00    +0.000 N 
ATOM      2  C   UNL     1     -45.642  -9.007 -27.072  0.00  0.00    +0.000 C 
ATOM      3  C   UNL     1     -45.610  -7.632 -26.372  0.00  0.00    +0.000 C 
ATOM      4  C   UNL     1     -46.155  -6.713 -27.403  0.00  0.00    +0.000 A 
ATOM      5  C   UNL     1     -46.351  -5.336 -27.302  0.00  0.00    +0.000 A 
ATOM      6  C   UNL     1     -46.874  -4.655 -28.413  0.00  0.00    +0.000 A 
ATOM      7  C   UNL     1     -47.183  -5.355 -29.595  0.00  0.00    +0.000 A 
ATOM      8  C   UNL     1     -46.980  -6.743 -29.669  0.00  0.00    +0.000 A 
ATOM      9  C   UNL     1     -46.464  -7.397 -28.546  0.00  0.00    +0.000 A 
ATOM     10  C   UNL     1     -46.577  -9.818 -29.330  0.00  0.00    +0.000 C 
ATOM     11  O   UNL     1     -47.453  -9.567 -30.204  0.00  0.00    +0.000 OA
ENDROOT
BRANCH  10  12
ATOM     12  C   UNL     1     -46.007 -11.182 -29.263  0.00  0.00    +0.000 A 
ATOM     13  C   UNL     1     -46.784 -12.274 -28.844  0.00  0.00    +0.000 A 
ATOM     14  C   UNL     1     -46.228 -13.556 -28.774  0.00  0.00    +0.000 A 
ATOM     15  C   UNL     1     -44.889 -13.757 -29.119  0.00  0.00    +0.000 A 
ATOM     16  C   UNL     1     -44.105 -12.676 -29.528  0.00  0.00    +0.000 A 
ATOM     17  C   UNL     1     -44.660 -11.395 -29.596  0.00  0.00    +0.000 A 
ENDBRANCH  10  12
BRANCH   7  18
ATOM     18  C   UNL     1     -47.756  -4.626 -30.758  0.00  0.00    +0.000 C 
BRANCH  18  19
ATOM     19  N   UNL     1     -46.947  -3.455 -31.051  0.00  0.00    +0.000 NA
ATOM     20  H   UNL     1     -46.198  -3.368 -30.363  0.00  0.00    +0.000 HD
BRANCH  19  21
ATOM     21  S   UNL     1     -46.273  -3.663 -32.633  0.00  0.00    +0.000 S 
ATOM     22  O   UNL     1     -46.333  -5.116 -33.013  0.00  0.00    +0.000 OA
ATOM     23  O   UNL     1     -47.074  -2.869 -33.629  0.00  0.00    +0.000 OA
BRANCH  21  24
ATOM     24  C   UNL     1     -44.599  -3.132 -32.648  0.00  0.00    +0.000 A 
ATOM     25  C   UNL     1     -43.566  -4.046 -32.969  0.00  0.00    +0.000 A 
ATOM     26  C   UNL     1     -42.222  -3.633 -33.003  0.00  0.00    +0.000 A 
ATOM     27  C   UNL     1     -41.962  -2.295 -32.714  0.00  0.00    +0.000 A 
ATOM     28  C   UNL     1     -42.958  -1.407 -32.411  0.00  0.00    +0.000 A 
ATOM     29  C   UNL     1     -44.296  -1.785 -32.365  0.00  0.00    +0.000 A 
ATOM     30  O   UNL     1     -42.432  -0.224 -32.192  0.00  0.00    +0.000 OA
ATOM     31  C   UNL     1     -41.129  -0.379 -32.359  0.00  0.00    +0.000 A 
ATOM     32  N   UNL     1     -40.786  -1.649 -32.681  0.00  0.00    +0.000 N 
ATOM     33  C   UNL     1     -39.458  -2.183 -32.941  0.00  0.00    +0.000 C 
ATOM     34  O   UNL     1     -40.297   0.558 -32.232  0.00  0.00    +0.000 OA
ENDBRANCH  21  24
ENDBRANCH  19  21
ENDBRANCH  18  19
ENDBRANCH   7  18
TORSDOF 5
ENDMDL
MODEL 2
REMARK VINA RESULT:      -7.7      9.181     13.754
REMARK  Name = ZINC000015869695 MCULE-2885134168 MolPort-007-958-787
REMARK  5 active torsions:
REMARK  status: ('A' for Active; 'I' for Inactive)
REMARK    1  A    between atoms: C_7  and  C_18
REMARK    2  A    between atoms: C_10  and  C_12
REMARK    3  A    between atoms: C_18  and  N_19
REMARK    4  A    between atoms: N_19  and  S_21
REMARK    5  A    between atoms: S_21  and  C_24
REMARK                            x       y       z     vdW  Elec       q    Type
REMARK                         _______ _______ _______ _____ _____    ______ ____
ROOT
ATOM      1  N   UNL     1     -46.051 -14.442 -19.433  0.00  0.00    +0.000 N 
ATOM      2  C   UNL     1     -46.875 -14.339 -18.226  0.00  0.00    +0.000 C 
ATOM      3  C   UNL     1     -47.392 -15.762 -17.923  0.00  0.00    +0.000 C 
ATOM      4  C   UNL     1     -46.785 -16.581 -19.002  0.00  0.00    +0.000 A 
ATOM      5  C   UNL     1     -46.920 -17.953 -19.213  0.00  0.00    +0.000 A 
ATOM      6  C   UNL     1     -46.261 -18.526 -20.312  0.00  0.00    +0.000 A 
ATOM      7  C   UNL     1     -45.492 -17.724 -21.177  0.00  0.00    +0.000 A 
ATOM      8  C   UNL     1     -45.369 -16.345 -20.941  0.00  0.00    +0.000 A 
ATOM      9  C   UNL     1     -46.030 -15.802 -19.835  0.00  0.00    +0.000 A 
ATOM     10  C   UNL     1     -45.194 -13.398 -19.934  0.00  0.00    +0.000 C 
ATOM     11  O   UNL     1     -44.181 -13.705 -20.621  0.00  0.00    +0.000 OA
ENDROOT
BRANCH  10  12
ATOM     12  C   UNL     1     -45.459 -11.969 -19.653  0.00  0.00    +0.000 A 
ATOM     13  C   UNL     1     -46.569 -11.313 -20.209  0.00  0.00    +0.000 A 
ATOM     14  C   UNL     1     -46.800  -9.959 -19.945  0.00  0.00    +0.000 A 
ATOM     15  C   UNL     1     -45.921  -9.247 -19.125  0.00  0.00    +0.000 A 
ATOM     16  C   UNL     1     -44.808  -9.887 -18.575  0.00  0.00    +0.000 A 
ATOM     17  C   UNL     1     -44.576 -11.240 -18.841  0.00  0.00    +0.000 A 
ENDBRANCH  10  12
BRANCH   7  18
ATOM     18  C   UNL     1     -44.781 -18.347 -22.326  0.00  0.00    +0.000 C 
BRANCH  18  19
ATOM     19  N   UNL     1     -45.740 -18.714 -23.355  0.00  0.00    +0.000 NA
ATOM     20  H   UNL     1     -46.514 -18.049 -23.363  0.00  0.00    +0.000 HD
BRANCH  19  21
ATOM     21  S   UNL     1     -44.915 -18.678 -24.879  0.00  0.00    +0.000 S 
ATOM     22  O   UNL     1     -43.472 -19.039 -24.673  0.00  0.00    +0.000 OA
ATOM     23  O   UNL     1     -45.538 -19.682 -25.811  0.00  0.00    +0.000 OA
BRANCH  21  24
ATOM     24  C   UNL     1     -45.014 -17.069 -25.577  0.00  0.00    +0.000 A 
ATOM     25  C   UNL     1     -44.246 -16.743 -26.721  0.00  0.00    +0.000 A 
ATOM     26  C   UNL     1     -44.326 -15.465 -27.304  0.00  0.00    +0.000 A 
ATOM     27  C   UNL     1     -45.193 -14.550 -26.709  0.00  0.00    +0.000 A 
ATOM     28  C   UNL     1     -45.942 -14.864 -25.607  0.00  0.00    +0.000 A 
ATOM     29  C   UNL     1     -45.882 -16.117 -25.006  0.00  0.00    +0.000 A 
ATOM     30  O   UNL     1     -46.669 -13.824 -25.267  0.00  0.00    +0.000 OA
ATOM     31  C   UNL     1     -46.373 -12.882 -26.147  0.00  0.00    +0.000 A 
ATOM     32  N   UNL     1     -45.458 -13.283 -27.062  0.00  0.00    +0.000 N 
ATOM     33  C   UNL     1     -44.903 -12.522 -28.171  0.00  0.00    +0.000 C 
ATOM     34  O   UNL     1     -46.890 -11.734 -26.133  0.00  0.00    +0.000 OA
ENDBRANCH  21  24
ENDBRANCH  19  21
ENDBRANCH  18  19
ENDBRANCH   7  18
TORSDOF 5
ENDMDL
MODEL 3
REMARK VINA RESULT:      -7.6      3.488     10.426
REMARK  Name = ZINC000015869695 MCULE-2885134168 MolPort-007-958-787
REMARK  5 active torsions:
REMARK  status: ('A' for Active; 'I' for Inactive)
REMARK    1  A    between atoms: C_7  and  C_18
REMARK    2  A    between atoms: C_10  and  C_12
REMARK    3  A    between atoms: C_18  and  N_19
REMARK    4  A    between atoms: N_19  and  S_21
REMARK    5  A    between atoms: S_21  and  C_24
REMARK                            x       y       z     vdW  Elec       q    Type
REMARK                         _______ _______ _______ _____ _____    ______ ____
ROOT
ATOM      1  N   UNL     1     -45.684  -5.204 -32.022  0.00  0.00    +0.000 N 
ATOM      2  C   UNL     1     -45.554  -5.224 -33.481  0.00  0.00    +0.000 C 
ATOM      3  C   UNL     1     -46.095  -6.591 -33.953  0.00  0.00    +0.000 C 
ATOM      4  C   UNL     1     -46.517  -7.243 -32.688  0.00  0.00    +0.000 A 
ATOM      5  C   UNL     1     -47.084  -8.508 -32.527  0.00  0.00    +0.000 A 
ATOM      6  C   UNL     1     -47.400  -8.935 -31.227  0.00  0.00    +0.000 A 
ATOM      7  C   UNL     1     -47.139  -8.102 -30.122  0.00  0.00    +0.000 A 
ATOM      8  C   UNL     1     -46.572  -6.831 -30.312  0.00  0.00    +0.000 A 
ATOM      9  C   UNL     1     -46.273  -6.429 -31.618  0.00  0.00    +0.000 A 
ATOM     10  C   UNL     1     -45.511  -4.035 -31.198  0.00  0.00    +0.000 C 
ATOM     11  O   UNL     1     -46.110  -3.963 -30.090  0.00  0.00    +0.000 OA
ENDROOT
BRANCH  10  12
ATOM     12  C   UNL     1     -44.656  -2.902 -31.620  0.00  0.00    +0.000 A 
ATOM     13  C   UNL     1     -43.314  -3.100 -31.980  0.00  0.00    +0.000 A 
ATOM     14  C   UNL     1     -42.514  -2.019 -32.366  0.00  0.00    +0.000 A 
ATOM     15  C   UNL     1     -43.049  -0.728 -32.390  0.00  0.00    +0.000 A 
ATOM     16  C   UNL     1     -44.382  -0.518 -32.024  0.00  0.00    +0.000 A 
ATOM     17  C   UNL     1     -45.179  -1.600 -31.638  0.00  0.00    +0.000 A 
ENDBRANCH  10  12
BRANCH   7  18
ATOM     18  C   UNL     1     -47.498  -8.557 -28.752  0.00  0.00    +0.000 C 
BRANCH  18  19
ATOM     19  N   UNL     1     -47.281  -9.990 -28.638  0.00  0.00    +0.000 NA
ATOM     20  H   UNL     1     -46.699 -10.316 -29.411  0.00  0.00    +0.000 HD
BRANCH  19  21
ATOM     21  S   UNL     1     -46.478 -10.282 -27.131  0.00  0.00    +0.000 S 
ATOM     22  O   UNL     1     -45.359  -9.295 -26.963  0.00  0.00    +0.000 OA
ATOM     23  O   UNL     1     -47.455 -10.105 -25.999  0.00  0.00    +0.000 OA
BRANCH  21  24
ATOM     24  C   UNL     1     -45.820 -11.910 -27.107  0.00  0.00    +0.000 A 
ATOM     25  C   UNL     1     -46.193 -12.812 -26.082  0.00  0.00    +0.000 A 
ATOM     26  C   UNL     1     -45.689 -14.126 -26.058  0.00  0.00    +0.000 A 
ATOM     27  C   UNL     1     -44.819 -14.491 -27.084  0.00  0.00    +0.000 A 
ATOM     28  C   UNL     1     -44.462 -13.624 -28.081  0.00  0.00    +0.000 A 
ATOM     29  C   UNL     1     -44.940 -12.318 -28.130  0.00  0.00    +0.000 A 
ATOM     30  O   UNL     1     -43.645 -14.230 -28.910  0.00  0.00    +0.000 OA
ATOM     31  C   UNL     1     -43.500 -15.455 -28.433  0.00  0.00    +0.000 A 
ATOM     32  N   UNL     1     -44.208 -15.665 -27.297  0.00  0.00    +0.000 N 
ATOM     33  C   UNL     1     -44.292 -16.882 -26.503  0.00  0.00    +0.000 C 
ATOM     34  O   UNL     1     -42.781 -16.332 -28.980  0.00  0.00    +0.000 OA
ENDBRANCH  21  24
ENDBRANCH  19  21
ENDBRANCH  18  19
ENDBRANCH   7  18
TORSDOF 5
ENDMDL
