MODEL 1
REMARK VINA RESULT:      -6.9      0.000      0.000
REMARK  Name = ZINC000524729961
REMARK  9 active torsions:
REMARK  status: ('A' for Active; 'I' for Inactive)
REMARK    1  A    between atoms: C_2  and  O_26
REMARK    2  A    between atoms: C_4  and  C_5
REMARK    3  A    between atoms: C_5  and  C_6
REMARK    4  A    between atoms: C_5  and  C_17
REMARK    5  A    between atoms: C_6  and  C_7
REMARK    6  A    between atoms: C_8  and  C_9
REMARK    7  A    between atoms: C_8  and  N_32
REMARK    8  A    between atoms: C_9  and  C_10
REMARK    9  A    between atoms: C_10  and  C_11
REMARK                            x       y       z     vdW  Elec       q    Type
REMARK                         _______ _______ _______ _____ _____    ______ ____
ROOT
ATOM      1  C   UNL     1     -45.306 -16.092 -24.526  0.00  0.00    +0.000 C 
ENDROOT
BRANCH   1   2
ATOM      2  C   UNL     1     -44.680 -17.443 -24.762  0.00  0.00    +0.000 A 
ATOM      3  C   UNL     1     -42.696 -18.674 -24.880  0.00  0.00    +0.000 A 
ATOM      4  C   UNL     1     -41.213 -18.697 -24.785  0.00  0.00    +0.000 C 
ATOM      5  C   UNL     1     -43.388 -19.849 -25.171  0.00  0.00    +0.000 A 
ATOM      6  C   UNL     1     -44.777 -19.804 -25.258  0.00  0.00    +0.000 A 
ATOM      7  C   UNL     1     -45.443 -18.592 -25.053  0.00  0.00    +0.000 A 
ATOM      8  O   UNL     1     -43.353 -17.533 -24.689  0.00  0.00    +0.000 OA
ATOM      9  O   UNL     1     -45.422 -20.852 -25.524  0.00  0.00    +0.000 OA
ATOM     10  O   UNL     1     -46.830 -18.535 -25.146  0.00  0.00    +0.000 OA
ENDBRANCH   1   2
BRANCH   1  13
ATOM     11  C   UNL     1     -46.353 -13.433 -27.059  0.00  0.00    +0.000 A 
ATOM     12  C   UNL     1     -46.283 -14.191 -25.879  0.00  0.00    +0.000 A 
ATOM     13  C   UNL     1     -45.410 -15.283 -25.782  0.00  0.00    +0.000 A 
ATOM     14  C   UNL     1     -44.597 -15.613 -26.871  0.00  0.00    +0.000 A 
ATOM     15  C   UNL     1     -44.661 -14.864 -28.049  0.00  0.00    +0.000 A 
ATOM     16  C   UNL     1     -45.536 -13.778 -28.144  0.00  0.00    +0.000 A 
ATOM     17  O   UNL     1     -45.588 -13.043 -29.322  0.00  0.00    +0.000 OA
BRANCH  11  19
ATOM     18  C   UNL     1     -46.886 -11.045 -26.691  0.00  0.00    +0.000 C 
ATOM     19  O   UNL     1     -47.219 -12.341 -27.171  0.00  0.00    +0.000 OA
ENDBRANCH  11  19
ENDBRANCH   1  13
BRANCH   1  20
ATOM     20  C   UNL     1     -44.677 -15.312 -23.370  0.00  0.00    +0.000 C 
BRANCH  20  21
ATOM     21  C   UNL     1     -45.632 -15.185 -22.232  0.00  0.00    +0.000 C 
ATOM     22  O   UNL     1     -46.669 -14.481 -22.355  0.00  0.00    +0.000 OA
ATOM     23  N   UNL     1     -45.366 -15.887 -21.017  0.00  0.00    +0.000 NA
BRANCH  23  24
ATOM     24  C   UNL     1     -46.304 -15.937 -19.903  0.00  0.00    +0.000 C 
BRANCH  24  25
ATOM     25  C   UNL     1     -46.370 -17.341 -19.306  0.00  0.00    +0.000 C 
BRANCH  25  26
ATOM     26  C   UNL     1     -45.919 -18.410 -20.297  0.00  0.00    +0.000 C 
BRANCH  26  27
ATOM     27  C   UNL     1     -44.813 -19.248 -19.740  0.00  0.00    +0.000 A 
ATOM     28  C   UNL     1     -42.921 -20.085 -19.328  0.00  0.00    +0.000 A 
ATOM     29  C   UNL     1     -41.548 -20.302 -19.403  0.00  0.00    +0.000 A 
ATOM     30  C   UNL     1     -40.826 -19.512 -20.315  0.00  0.00    +0.000 A 
ATOM     31  C   UNL     1     -41.482 -18.547 -21.107  0.00  0.00    +0.000 A 
ATOM     32  C   UNL     1     -42.870 -18.377 -20.983  0.00  0.00    +0.000 A 
ATOM     33  N   UNL     1     -44.989 -20.189 -18.786  0.00  0.00    +0.000 NA
ATOM     34  N   UNL     1     -43.796 -20.720 -18.526  0.00  0.00    +0.000 NA
ATOM     35  N   UNL     1     -43.521 -19.166 -20.093  0.00  0.00    +0.000 N 
ENDBRANCH  26  27
ENDBRANCH  25  26
ENDBRANCH  24  25
ENDBRANCH  23  24
ENDBRANCH  20  21
ENDBRANCH   1  20
TORSDOF 9
ENDMDL
MODEL 2
REMARK VINA RESULT:      -6.6      1.340      2.024
REMARK  Name = ZINC000524729961
REMARK  9 active torsions:
REMARK  status: ('A' for Active; 'I' for Inactive)
REMARK    1  A    between atoms: C_2  and  O_26
REMARK    2  A    between atoms: C_4  and  C_5
REMARK    3  A    between atoms: C_5  and  C_6
REMARK    4  A    between atoms: C_5  and  C_17
REMARK    5  A    between atoms: C_6  and  C_7
REMARK    6  A    between atoms: C_8  and  C_9
REMARK    7  A    between atoms: C_8  and  N_32
REMARK    8  A    between atoms: C_9  and  C_10
REMARK    9  A    between atoms: C_10  and  C_11
REMARK                            x       y       z     vdW  Elec       q    Type
REMARK                         _______ _______ _______ _____ _____    ______ ____
ROOT
ATOM      1  C   UNL     1     -45.150 -15.987 -24.410  0.00  0.00    +0.000 C 
ENDROOT
BRANCH   1   2
ATOM      2  C   UNL     1     -44.603 -17.383 -24.566  0.00  0.00    +0.000 A 
ATOM      3  C   UNL     1     -42.719 -18.759 -24.437  0.00  0.00    +0.000 A 
ATOM      4  C   UNL     1     -41.265 -18.892 -24.158  0.00  0.00    +0.000 C 
ATOM      5  C   UNL     1     -43.456 -19.882 -24.811  0.00  0.00    +0.000 A 
ATOM      6  C   UNL     1     -44.816 -19.735 -25.069  0.00  0.00    +0.000 A 
ATOM      7  C   UNL     1     -45.409 -18.475 -24.949  0.00  0.00    +0.000 A 
ATOM      8  O   UNL     1     -43.306 -17.571 -24.329  0.00  0.00    +0.000 OA
ATOM      9  O   UNL     1     -45.500 -20.734 -25.412  0.00  0.00    +0.000 OA
ATOM     10  O   UNL     1     -46.766 -18.315 -25.213  0.00  0.00    +0.000 OA
ENDBRANCH   1   2
BRANCH   1  13
ATOM     11  C   UNL     1     -46.307 -13.570 -27.132  0.00  0.00    +0.000 A 
ATOM     12  C   UNL     1     -46.210 -14.238 -25.900  0.00  0.00    +0.000 A 
ATOM     13  C   UNL     1     -45.284 -15.275 -25.722  0.00  0.00    +0.000 A 
ATOM     14  C   UNL     1     -44.447 -15.641 -26.780  0.00  0.00    +0.000 A 
ATOM     15  C   UNL     1     -44.538 -14.983 -28.009  0.00  0.00    +0.000 A 
ATOM     16  C   UNL     1     -45.465 -13.951 -28.186  0.00  0.00    +0.000 A 
ATOM     17  O   UNL     1     -45.544 -13.305 -29.414  0.00  0.00    +0.000 OA
BRANCH  11  19
ATOM     18  C   UNL     1     -46.977 -11.199 -26.905  0.00  0.00    +0.000 C 
ATOM     19  O   UNL     1     -47.225 -12.534 -27.326  0.00  0.00    +0.000 OA
ENDBRANCH  11  19
ENDBRANCH   1  13
BRANCH   1  20
ATOM     20  C   UNL     1     -44.423 -15.151 -23.355  0.00  0.00    +0.000 C 
BRANCH  20  21
ATOM     21  C   UNL     1     -45.382 -14.610 -22.351  0.00  0.00    +0.000 C 
ATOM     22  O   UNL     1     -46.620 -14.795 -22.497  0.00  0.00    +0.000 OA
ATOM     23  N   UNL     1     -44.879 -13.904 -21.216  0.00  0.00    +0.000 NA
BRANCH  23  24
ATOM     24  C   UNL     1     -45.722 -13.460 -20.114  0.00  0.00    +0.000 C 
BRANCH  24  25
ATOM     25  C   UNL     1     -45.054 -13.733 -18.769  0.00  0.00    +0.000 C 
BRANCH  25  26
ATOM     26  C   UNL     1     -45.434 -15.099 -18.205  0.00  0.00    +0.000 C 
BRANCH  26  27
ATOM     27  C   UNL     1     -44.439 -16.149 -18.580  0.00  0.00    +0.000 A 
ATOM     28  C   UNL     1     -43.473 -17.783 -19.501  0.00  0.00    +0.000 A 
ATOM     29  C   UNL     1     -43.273 -18.870 -20.348  0.00  0.00    +0.000 A 
ATOM     30  C   UNL     1     -44.333 -19.214 -21.204  0.00  0.00    +0.000 A 
ATOM     31  C   UNL     1     -45.536 -18.479 -21.192  0.00  0.00    +0.000 A 
ATOM     32  C   UNL     1     -45.675 -17.393 -20.314  0.00  0.00    +0.000 A 
ATOM     33  N   UNL     1     -43.206 -16.248 -18.033  0.00  0.00    +0.000 NA
ATOM     34  N   UNL     1     -42.596 -17.280 -18.612  0.00  0.00    +0.000 NA
ATOM     35  N   UNL     1     -44.625 -17.102 -19.506  0.00  0.00    +0.000 N 
ENDBRANCH  26  27
ENDBRANCH  25  26
ENDBRANCH  24  25
ENDBRANCH  23  24
ENDBRANCH  20  21
ENDBRANCH   1  20
TORSDOF 9
ENDMDL
MODEL 3
REMARK VINA RESULT:      -6.6      2.328      3.425
REMARK  Name = ZINC000524729961
REMARK  9 active torsions:
REMARK  status: ('A' for Active; 'I' for Inactive)
REMARK    1  A    between atoms: C_2  and  O_26
REMARK    2  A    between atoms: C_4  and  C_5
REMARK    3  A    between atoms: C_5  and  C_6
REMARK    4  A    between atoms: C_5  and  C_17
REMARK    5  A    between atoms: C_6  and  C_7
REMARK    6  A    between atoms: C_8  and  C_9
REMARK    7  A    between atoms: C_8  and  N_32
REMARK    8  A    between atoms: C_9  and  C_10
REMARK    9  A    between atoms: C_10  and  C_11
REMARK                            x       y       z     vdW  Elec       q    Type
REMARK                         _______ _______ _______ _____ _____    ______ ____
ROOT
ATOM      1  C   UNL     1     -44.014 -15.058 -25.677  0.00  0.00    +0.000 C 
ENDROOT
BRANCH   1   2
ATOM      2  C   UNL     1     -44.192 -16.551 -25.777  0.00  0.00    +0.000 A 
ATOM      3  C   UNL     1     -43.254 -18.580 -26.460  0.00  0.00    +0.000 A 
ATOM      4  C   UNL     1     -42.112 -19.302 -27.080  0.00  0.00    +0.000 C 
ATOM      5  C   UNL     1     -44.371 -19.295 -26.029  0.00  0.00    +0.000 A 
ATOM      6  C   UNL     1     -45.431 -18.599 -25.453  0.00  0.00    +0.000 A 
ATOM      7  C   UNL     1     -45.352 -17.209 -25.319  0.00  0.00    +0.000 A 
ATOM      8  O   UNL     1     -43.203 -17.259 -26.322  0.00  0.00    +0.000 OA
ATOM      9  O   UNL     1     -46.450 -19.223 -25.061  0.00  0.00    +0.000 OA
ATOM     10  O   UNL     1     -46.408 -16.503 -24.753  0.00  0.00    +0.000 OA
ENDBRANCH   1   2
BRANCH   1  13
ATOM     11  C   UNL     1     -46.576 -12.644 -27.157  0.00  0.00    +0.000 A 
ATOM     12  C   UNL     1     -45.793 -13.344 -26.227  0.00  0.00    +0.000 A 
ATOM     13  C   UNL     1     -44.874 -14.313 -26.652  0.00  0.00    +0.000 A 
ATOM     14  C   UNL     1     -44.734 -14.576 -28.018  0.00  0.00    +0.000 A 
ATOM     15  C   UNL     1     -45.509 -13.884 -28.951  0.00  0.00    +0.000 A 
ATOM     16  C   UNL     1     -46.429 -12.921 -28.523  0.00  0.00    +0.000 A 
ATOM     17  O   UNL     1     -47.194 -12.241 -29.464  0.00  0.00    +0.000 OA
BRANCH  11  19
ATOM     18  C   UNL     1     -47.134 -10.322 -26.510  0.00  0.00    +0.000 C 
ATOM     19  O   UNL     1     -47.498 -11.675 -26.749  0.00  0.00    +0.000 OA
ENDBRANCH  11  19
ENDBRANCH   1  13
BRANCH   1  20
ATOM     20  C   UNL     1     -42.553 -14.605 -25.709  0.00  0.00    +0.000 C 
BRANCH  20  21
ATOM     21  C   UNL     1     -42.193 -13.879 -24.458  0.00  0.00    +0.000 C 
ATOM     22  O   UNL     1     -41.103 -13.251 -24.385  0.00  0.00    +0.000 OA
ATOM     23  N   UNL     1     -43.105 -13.888 -23.360  0.00  0.00    +0.000 NA
BRANCH  23  24
ATOM     24  C   UNL     1     -42.907 -13.099 -22.152  0.00  0.00    +0.000 C 
BRANCH  24  25
ATOM     25  C   UNL     1     -44.138 -13.158 -21.250  0.00  0.00    +0.000 C 
BRANCH  25  26
ATOM     26  C   UNL     1     -45.236 -14.043 -21.833  0.00  0.00    +0.000 C 
BRANCH  26  27
ATOM     27  C   UNL     1     -45.833 -14.939 -20.796  0.00  0.00    +0.000 A 
ATOM     28  C   UNL     1     -46.416 -16.631 -19.679  0.00  0.00    +0.000 A 
ATOM     29  C   UNL     1     -46.557 -17.967 -19.316  0.00  0.00    +0.000 A 
ATOM     30  C   UNL     1     -45.979 -18.924 -20.169  0.00  0.00    +0.000 A 
ATOM     31  C   UNL     1     -45.291 -18.527 -21.334  0.00  0.00    +0.000 A 
ATOM     32  C   UNL     1     -45.184 -17.162 -21.643  0.00  0.00    +0.000 A 
ATOM     33  N   UNL     1     -46.511 -14.493 -19.715  0.00  0.00    +0.000 NA
ATOM     34  N   UNL     1     -46.881 -15.559 -19.009  0.00  0.00    +0.000 NA
ATOM     35  N   UNL     1     -45.760 -16.279 -20.791  0.00  0.00    +0.000 N 
ENDBRANCH  26  27
ENDBRANCH  25  26
ENDBRANCH  24  25
ENDBRANCH  23  24
ENDBRANCH  20  21
ENDBRANCH   1  20
TORSDOF 9
ENDMDL
