MODEL 1
REMARK VINA RESULT:      -6.4      0.000      0.000
REMARK  Name = ZINC000011118389 ZINC11118389 PubChem-41826645
REMARK  6 active torsions:
REMARK  status: ('A' for Active; 'I' for Inactive)
REMARK    1  A    between atoms: C_2  and  C_3
REMARK    2  A    between atoms: C_15  and  C_16
REMARK    3  A    between atoms: C_15  and  N_26
REMARK    4  A    between atoms: C_17  and  C_19
REMARK    5  A    between atoms: C_17  and  N_27
REMARK    6  A    between atoms: C_19  and  O_25
REMARK                            x       y       z     vdW  Elec       q    Type
REMARK                         _______ _______ _______ _____ _____    ______ ____
ROOT
ATOM      1  C   UNL     1     -47.138  -4.012 -25.340  0.00  0.00    +0.000 A 
ATOM      2  C   UNL     1     -46.767  -5.117 -24.579  0.00  0.00    +0.000 A 
ATOM      3  C   UNL     1     -46.412  -6.307 -25.210  0.00  0.00    +0.000 A 
ATOM      4  C   UNL     1     -46.415  -6.420 -26.612  0.00  0.00    +0.000 A 
ATOM      5  C   UNL     1     -46.787  -5.291 -27.396  0.00  0.00    +0.000 A 
ATOM      6  C   UNL     1     -47.139  -4.100 -26.734  0.00  0.00    +0.000 A 
ATOM      7  C   UNL     1     -46.807  -5.295 -28.892  0.00  0.00    +0.000 A 
ATOM      8  C   UNL     1     -47.001  -4.085 -29.583  0.00  0.00    +0.000 A 
ATOM      9  C   UNL     1     -47.035  -4.046 -30.979  0.00  0.00    +0.000 A 
ATOM     10  C   UNL     1     -46.878  -5.222 -31.710  0.00  0.00    +0.000 A 
ATOM     11  C   UNL     1     -46.687  -6.434 -31.046  0.00  0.00    +0.000 A 
ATOM     12  C   UNL     1     -46.650  -6.474 -29.647  0.00  0.00    +0.000 A 
ATOM     13  S   UNL     1     -46.416  -8.006 -28.856  0.00  0.00    +0.000 S 
ATOM     14  O   UNL     1     -47.670  -8.829 -28.935  0.00  0.00    +0.000 OA
ATOM     15  O   UNL     1     -45.272  -8.736 -29.504  0.00  0.00    +0.000 OA
ATOM     16  N   UNL     1     -46.033  -7.675 -27.209  0.00  0.00    +0.000 N 
ENDROOT
BRANCH   1  18
ATOM     17  C   UNL     1     -47.412  -1.570 -25.629  0.00  0.00    +0.000 C 
ATOM     18  C   UNL     1     -47.499  -2.735 -24.660  0.00  0.00    +0.000 C 
ENDBRANCH   1  18
BRANCH  16  19
ATOM     19  C   UNL     1     -45.413  -8.741 -26.429  0.00  0.00    +0.000 C 
BRANCH  19  20
ATOM     20  C   UNL     1     -46.334  -9.909 -26.326  0.00  0.00    +0.000 C 
ATOM     21  O   UNL     1     -47.415  -9.794 -25.688  0.00  0.00    +0.000 OA
ATOM     22  N   UNL     1     -45.982 -11.148 -26.946  0.00  0.00    +0.000 NA
BRANCH  22  23
ATOM     23  C   UNL     1     -46.800 -12.346 -26.831  0.00  0.00    +0.000 C 
ATOM     24  C   UNL     1     -46.049 -13.407 -26.050  0.00  0.00    +0.000 C 
BRANCH  23  25
ATOM     25  C   UNL     1     -47.114 -12.882 -28.216  0.00  0.00    +0.000 C 
BRANCH  25  27
ATOM     26  C   UNL     1     -45.873 -13.076 -30.029  0.00  0.00    +0.000 C 
ATOM     27  O   UNL     1     -46.005 -13.557 -28.728  0.00  0.00    +0.000 OA
ENDBRANCH  25  27
ENDBRANCH  23  25
ENDBRANCH  22  23
ENDBRANCH  19  20
ENDBRANCH  16  19
TORSDOF 6
ENDMDL
MODEL 2
REMARK VINA RESULT:      -6.0      8.777     12.299
REMARK  Name = ZINC000011118389 ZINC11118389 PubChem-41826645
REMARK  6 active torsions:
REMARK  status: ('A' for Active; 'I' for Inactive)
REMARK    1  A    between atoms: C_2  and  C_3
REMARK    2  A    between atoms: C_15  and  C_16
REMARK    3  A    between atoms: C_15  and  N_26
REMARK    4  A    between atoms: C_17  and  C_19
REMARK    5  A    between atoms: C_17  and  N_27
REMARK    6  A    between atoms: C_19  and  O_25
REMARK                            x       y       z     vdW  Elec       q    Type
REMARK                         _______ _______ _______ _____ _____    ______ ____
ROOT
ATOM      1  C   UNL     1     -45.891 -16.658 -19.739  0.00  0.00    +0.000 A 
ATOM      2  C   UNL     1     -45.503 -17.995 -19.715  0.00  0.00    +0.000 A 
ATOM      3  C   UNL     1     -45.150 -18.637 -20.901  0.00  0.00    +0.000 A 
ATOM      4  C   UNL     1     -45.172 -17.960 -22.133  0.00  0.00    +0.000 A 
ATOM      5  C   UNL     1     -45.561 -16.590 -22.163  0.00  0.00    +0.000 A 
ATOM      6  C   UNL     1     -45.910 -15.965 -20.951  0.00  0.00    +0.000 A 
ATOM      7  C   UNL     1     -45.601 -15.771 -23.413  0.00  0.00    +0.000 A 
ATOM      8  C   UNL     1     -45.812 -14.382 -23.322  0.00  0.00    +0.000 A 
ATOM      9  C   UNL     1     -45.866 -13.582 -24.466  0.00  0.00    +0.000 A 
ATOM     10  C   UNL     1     -45.711 -14.159 -25.725  0.00  0.00    +0.000 A 
ATOM     11  C   UNL     1     -45.505 -15.534 -25.839  0.00  0.00    +0.000 A 
ATOM     12  C   UNL     1     -45.448 -16.337 -24.695  0.00  0.00    +0.000 A 
ATOM     13  S   UNL     1     -45.195 -18.048 -24.879  0.00  0.00    +0.000 S 
ATOM     14  O   UNL     1     -46.445 -18.707 -25.387  0.00  0.00    +0.000 OA
ATOM     15  O   UNL     1     -44.056 -18.287 -25.831  0.00  0.00    +0.000 OA
ATOM     16  N   UNL     1     -44.792 -18.673 -23.325  0.00  0.00    +0.000 N 
ENDROOT
BRANCH   1  18
ATOM     17  C   UNL     1     -47.756 -15.918 -18.292  0.00  0.00    +0.000 C 
ATOM     18  C   UNL     1     -46.249 -15.972 -18.465  0.00  0.00    +0.000 C 
ENDBRANCH   1  18
BRANCH  16  19
ATOM     19  C   UNL     1     -44.155 -19.986 -23.267  0.00  0.00    +0.000 C 
BRANCH  19  20
ATOM     20  C   UNL     1     -42.781 -19.869 -22.698  0.00  0.00    +0.000 C 
ATOM     21  O   UNL     1     -41.999 -18.986 -23.139  0.00  0.00    +0.000 OA
ATOM     22  N   UNL     1     -42.364 -20.762 -21.663  0.00  0.00    +0.000 NA
BRANCH  22  23
ATOM     23  C   UNL     1     -41.019 -20.749 -21.107  0.00  0.00    +0.000 C 
ATOM     24  C   UNL     1     -40.249 -21.960 -21.598  0.00  0.00    +0.000 C 
BRANCH  23  25
ATOM     25  C   UNL     1     -41.093 -20.792 -19.592  0.00  0.00    +0.000 C 
BRANCH  25  27
ATOM     26  C   UNL     1     -42.673 -20.260 -18.149  0.00  0.00    +0.000 C 
ATOM     27  O   UNL     1     -42.383 -21.140 -19.189  0.00  0.00    +0.000 OA
ENDBRANCH  25  27
ENDBRANCH  23  25
ENDBRANCH  22  23
ENDBRANCH  19  20
ENDBRANCH  16  19
TORSDOF 6
ENDMDL
MODEL 3
REMARK VINA RESULT:      -6.0      8.486     12.296
REMARK  Name = ZINC000011118389 ZINC11118389 PubChem-41826645
REMARK  6 active torsions:
REMARK  status: ('A' for Active; 'I' for Inactive)
REMARK    1  A    between atoms: C_2  and  C_3
REMARK    2  A    between atoms: C_15  and  C_16
REMARK    3  A    between atoms: C_15  and  N_26
REMARK    4  A    between atoms: C_17  and  C_19
REMARK    5  A    between atoms: C_17  and  N_27
REMARK    6  A    between atoms: C_19  and  O_25
REMARK                            x       y       z     vdW  Elec       q    Type
REMARK                         _______ _______ _______ _____ _____    ______ ____
ROOT
ATOM      1  C   UNL     1     -45.668 -14.132 -24.604  0.00  0.00    +0.000 A 
ATOM      2  C   UNL     1     -45.138 -15.263 -25.220  0.00  0.00    +0.000 A 
ATOM      3  C   UNL     1     -44.956 -16.433 -24.485  0.00  0.00    +0.000 A 
ATOM      4  C   UNL     1     -45.300 -16.501 -23.123  0.00  0.00    +0.000 A 
ATOM      5  C   UNL     1     -45.848 -15.350 -22.489  0.00  0.00    +0.000 A 
ATOM      6  C   UNL     1     -46.025 -14.182 -23.255  0.00  0.00    +0.000 A 
ATOM      7  C   UNL     1     -46.265 -15.319 -21.053  0.00  0.00    +0.000 A 
ATOM      8  C   UNL     1     -46.971 -14.203 -20.564  0.00  0.00    +0.000 A 
ATOM      9  C   UNL     1     -47.371 -14.130 -19.227  0.00  0.00    +0.000 A 
ATOM     10  C   UNL     1     -47.069 -15.173 -18.354  0.00  0.00    +0.000 A 
ATOM     11  C   UNL     1     -46.369 -16.287 -18.817  0.00  0.00    +0.000 A 
ATOM     12  C   UNL     1     -45.969 -16.364 -20.156  0.00  0.00    +0.000 A 
ATOM     13  S   UNL     1     -45.092 -17.767 -20.693  0.00  0.00    +0.000 S 
ATOM     14  O   UNL     1     -43.680 -17.724 -20.182  0.00  0.00    +0.000 OA
ATOM     15  O   UNL     1     -45.785 -19.009 -20.206  0.00  0.00    +0.000 OA
ATOM     16  N   UNL     1     -45.094 -17.739 -22.415  0.00  0.00    +0.000 N 
ENDROOT
BRANCH   1  18
ATOM     17  C   UNL     1     -46.258 -13.228 -26.830  0.00  0.00    +0.000 C 
ATOM     18  C   UNL     1     -45.878 -12.889 -25.400  0.00  0.00    +0.000 C 
ENDBRANCH   1  18
BRANCH  16  19
ATOM     19  C   UNL     1     -44.776 -18.981 -23.114  0.00  0.00    +0.000 C 
BRANCH  19  20
ATOM     20  C   UNL     1     -43.344 -19.341 -22.905  0.00  0.00    +0.000 C 
ATOM     21  O   UNL     1     -42.445 -18.669 -23.478  0.00  0.00    +0.000 OA
ATOM     22  N   UNL     1     -43.005 -20.444 -22.063  0.00  0.00    +0.000 NA
BRANCH  22  23
ATOM     23  C   UNL     1     -41.634 -20.892 -21.865  0.00  0.00    +0.000 C 
ATOM     24  C   UNL     1     -41.445 -22.259 -22.494  0.00  0.00    +0.000 C 
BRANCH  23  25
ATOM     25  C   UNL     1     -41.338 -20.986 -20.380  0.00  0.00    +0.000 C 
BRANCH  25  27
ATOM     26  C   UNL     1     -42.221 -21.299 -18.383  0.00  0.00    +0.000 C 
ATOM     27  O   UNL     1     -42.510 -20.791 -19.648  0.00  0.00    +0.000 OA
ENDBRANCH  25  27
ENDBRANCH  23  25
ENDBRANCH  22  23
ENDBRANCH  19  20
ENDBRANCH  16  19
TORSDOF 6
ENDMDL
