MODEL 1
REMARK VINA RESULT:      -8.9      0.000      0.000
REMARK  Name = ZINC000064971506 ZINC64971506 ChemDiv-G741-1139 MCULE-4305964791 MolPort-010-846-948 PubChem-53091021
REMARK  5 active torsions:
REMARK  status: ('A' for Active; 'I' for Inactive)
REMARK    1  A    between atoms: N_1  and  C_20
REMARK    2  A    between atoms: N_8  and  C_23
REMARK    3  A    between atoms: C_23  and  C_24
REMARK    4  A    between atoms: N_26  and  C_28
REMARK    5  A    between atoms: C_28  and  C_29
REMARK                            x       y       z     vdW  Elec       q    Type
REMARK                         _______ _______ _______ _____ _____    ______ ____
ROOT
ATOM      1  N   UNL     1     -47.570  -4.076 -27.770  0.00  0.00    +0.000 N 
ATOM      2  C   UNL     1     -47.147  -5.347 -28.286  0.00  0.00    +0.000 C 
ATOM      3  O   UNL     1     -46.646  -6.208 -27.514  0.00  0.00    +0.000 OA
ATOM      4  N   UNL     1     -47.267  -5.617 -29.699  0.00  0.00    +0.000 N 
ATOM      5  C   UNL     1     -47.725  -4.522 -30.559  0.00  0.00    +0.000 C 
ATOM      6  C   UNL     1     -47.113  -4.602 -31.921  0.00  0.00    +0.000 C 
ATOM      7  O   UNL     1     -46.931  -3.544 -32.577  0.00  0.00    +0.000 OA
ATOM      8  N   UNL     1     -46.806  -5.880 -32.496  0.00  0.00    +0.000 N 
ATOM      9  C   UNL     1     -46.837  -7.057 -31.662  0.00  0.00    +0.000 A 
ATOM     10  C   UNL     1     -47.064  -6.931 -30.273  0.00  0.00    +0.000 A 
ATOM     11  C   UNL     1     -47.105  -8.089 -29.480  0.00  0.00    +0.000 A 
ATOM     12  C   UNL     1     -46.910  -9.350 -30.045  0.00  0.00    +0.000 A 
ATOM     13  C   UNL     1     -46.672  -9.471 -31.412  0.00  0.00    +0.000 A 
ATOM     14  C   UNL     1     -46.635  -8.332 -32.217  0.00  0.00    +0.000 A 
ATOM     15  H   UNL     1     -47.997  -3.463 -28.410  0.00  0.00    +0.000 HD
ENDROOT
BRANCH   1  20
ATOM     16  C   UNL     1     -47.067  -2.300 -22.349  0.00  0.00    +0.000 C 
ATOM     17  C   UNL     1     -47.196  -2.750 -23.760  0.00  0.00    +0.000 A 
ATOM     18  C   UNL     1     -47.269  -4.114 -24.053  0.00  0.00    +0.000 A 
ATOM     19  C   UNL     1     -47.391  -4.537 -25.381  0.00  0.00    +0.000 A 
ATOM     20  C   UNL     1     -47.439  -3.601 -26.421  0.00  0.00    +0.000 A 
ATOM     21  C   UNL     1     -47.372  -2.234 -26.120  0.00  0.00    +0.000 A 
ATOM     22  C   UNL     1     -47.251  -1.809 -24.792  0.00  0.00    +0.000 A 
ENDBRANCH   1  20
BRANCH   8  23
ATOM     23  C   UNL     1     -46.556  -5.969 -33.935  0.00  0.00    +0.000 C 
BRANCH  23  24
ATOM     24  C   UNL     1     -45.098  -5.813 -34.225  0.00  0.00    +0.000 C 
ATOM     25  O   UNL     1     -44.551  -6.572 -35.069  0.00  0.00    +0.000 OA
ATOM     26  N   UNL     1     -44.334  -4.810 -33.547  0.00  0.00    +0.000 N 
ATOM     27  H   UNL     1     -44.719  -4.387 -32.745  0.00  0.00    +0.000 HD
BRANCH  26  28
ATOM     28  C   UNL     1     -43.012  -4.389 -33.990  0.00  0.00    +0.000 C 
BRANCH  28  29
ATOM     29  C   UNL     1     -42.742  -2.978 -33.548  0.00  0.00    +0.000 A 
ATOM     30  C   UNL     1     -41.461  -2.558 -33.126  0.00  0.00    +0.000 A 
ATOM     31  C   UNL     1     -40.288  -3.486 -33.131  0.00  0.00    +0.000 C 
ATOM     32  C   UNL     1     -41.274  -1.240 -32.684  0.00  0.00    +0.000 A 
ATOM     33  C   UNL     1     -42.349  -0.342 -32.654  0.00  0.00    +0.000 A 
ATOM     34  C   UNL     1     -43.618  -0.759 -33.068  0.00  0.00    +0.000 A 
ATOM     35  C   UNL     1     -43.813  -2.070 -33.516  0.00  0.00    +0.000 A 
ENDBRANCH  28  29
ENDBRANCH  26  28
ENDBRANCH  23  24
ENDBRANCH   8  23
TORSDOF 5
ENDMDL
MODEL 2
REMARK VINA RESULT:      -8.4      2.209      8.294
REMARK  Name = ZINC000064971506 ZINC64971506 ChemDiv-G741-1139 MCULE-4305964791 MolPort-010-846-948 PubChem-53091021
REMARK  5 active torsions:
REMARK  status: ('A' for Active; 'I' for Inactive)
REMARK    1  A    between atoms: N_1  and  C_20
REMARK    2  A    between atoms: N_8  and  C_23
REMARK    3  A    between atoms: C_23  and  C_24
REMARK    4  A    between atoms: N_26  and  C_28
REMARK    5  A    between atoms: C_28  and  C_29
REMARK                            x       y       z     vdW  Elec       q    Type
REMARK                         _______ _______ _______ _____ _____    ______ ____
ROOT
ATOM      1  N   UNL     1     -41.431  -1.920 -32.301  0.00  0.00    +0.000 N 
ATOM      2  C   UNL     1     -42.157  -2.862 -33.104  0.00  0.00    +0.000 C 
ATOM      3  O   UNL     1     -41.774  -3.122 -34.276  0.00  0.00    +0.000 OA
ATOM      4  N   UNL     1     -43.347  -3.484 -32.570  0.00  0.00    +0.000 N 
ATOM      5  C   UNL     1     -43.813  -3.030 -31.257  0.00  0.00    +0.000 C 
ATOM      6  C   UNL     1     -45.303  -3.100 -31.151  0.00  0.00    +0.000 C 
ATOM      7  O   UNL     1     -45.905  -2.295 -30.394  0.00  0.00    +0.000 OA
ATOM      8  N   UNL     1     -46.025  -4.124 -31.850  0.00  0.00    +0.000 N 
ATOM      9  C   UNL     1     -45.348  -4.906 -32.856  0.00  0.00    +0.000 A 
ATOM     10  C   UNL     1     -44.019  -4.590 -33.218  0.00  0.00    +0.000 A 
ATOM     11  C   UNL     1     -43.372  -5.371 -34.189  0.00  0.00    +0.000 A 
ATOM     12  C   UNL     1     -44.030  -6.437 -34.805  0.00  0.00    +0.000 A 
ATOM     13  C   UNL     1     -45.345  -6.738 -34.457  0.00  0.00    +0.000 A 
ATOM     14  C   UNL     1     -46.001  -5.976 -33.489  0.00  0.00    +0.000 A 
ATOM     15  H   UNL     1     -41.748  -1.793 -31.379  0.00  0.00    +0.000 HD
ENDROOT
BRANCH   1  20
ATOM     16  C   UNL     1     -36.812   1.087 -33.860  0.00  0.00    +0.000 C 
ATOM     17  C   UNL     1     -38.018   0.315 -33.457  0.00  0.00    +0.000 A 
ATOM     18  C   UNL     1     -37.923  -1.060 -33.230  0.00  0.00    +0.000 A 
ATOM     19  C   UNL     1     -39.057  -1.785 -32.851  0.00  0.00    +0.000 A 
ATOM     20  C   UNL     1     -40.291  -1.141 -32.698  0.00  0.00    +0.000 A 
ATOM     21  C   UNL     1     -40.378   0.240 -32.921  0.00  0.00    +0.000 A 
ATOM     22  C   UNL     1     -39.245   0.967 -33.300  0.00  0.00    +0.000 A 
ENDBRANCH   1  20
BRANCH   8  23
ATOM     23  C   UNL     1     -47.407  -4.409 -31.463  0.00  0.00    +0.000 C 
BRANCH  23  24
ATOM     24  C   UNL     1     -47.445  -5.196 -30.193  0.00  0.00    +0.000 C 
ATOM     25  O   UNL     1     -47.447  -6.455 -30.245  0.00  0.00    +0.000 OA
ATOM     26  N   UNL     1     -47.480  -4.521 -28.931  0.00  0.00    +0.000 N 
ATOM     27  H   UNL     1     -47.700  -3.562 -28.916  0.00  0.00    +0.000 HD
BRANCH  26  28
ATOM     28  C   UNL     1     -47.203  -5.193 -27.668  0.00  0.00    +0.000 C 
BRANCH  28  29
ATOM     29  C   UNL     1     -47.209  -4.199 -26.540  0.00  0.00    +0.000 A 
ATOM     30  C   UNL     1     -47.131  -4.601 -25.188  0.00  0.00    +0.000 A 
ATOM     31  C   UNL     1     -47.000  -6.040 -24.802  0.00  0.00    +0.000 C 
ATOM     32  C   UNL     1     -47.183  -3.634 -24.173  0.00  0.00    +0.000 A 
ATOM     33  C   UNL     1     -47.317  -2.277 -24.492  0.00  0.00    +0.000 A 
ATOM     34  C   UNL     1     -47.397  -1.879 -25.830  0.00  0.00    +0.000 A 
ATOM     35  C   UNL     1     -47.341  -2.836 -26.850  0.00  0.00    +0.000 A 
ENDBRANCH  28  29
ENDBRANCH  26  28
ENDBRANCH  23  24
ENDBRANCH   8  23
TORSDOF 5
ENDMDL
MODEL 3
REMARK VINA RESULT:      -8.2      5.553      9.623
REMARK  Name = ZINC000064971506 ZINC64971506 ChemDiv-G741-1139 MCULE-4305964791 MolPort-010-846-948 PubChem-53091021
REMARK  5 active torsions:
REMARK  status: ('A' for Active; 'I' for Inactive)
REMARK    1  A    between atoms: N_1  and  C_20
REMARK    2  A    between atoms: N_8  and  C_23
REMARK    3  A    between atoms: C_23  and  C_24
REMARK    4  A    between atoms: N_26  and  C_28
REMARK    5  A    between atoms: C_28  and  C_29
REMARK                            x       y       z     vdW  Elec       q    Type
REMARK                         _______ _______ _______ _____ _____    ______ ____
ROOT
ATOM      1  N   UNL     1     -46.546  -6.890 -26.616  0.00  0.00    +0.000 N 
ATOM      2  C   UNL     1     -46.507  -7.363 -27.970  0.00  0.00    +0.000 C 
ATOM      3  O   UNL     1     -46.674  -6.559 -28.926  0.00  0.00    +0.000 OA
ATOM      4  N   UNL     1     -46.309  -8.771 -28.226  0.00  0.00    +0.000 N 
ATOM      5  C   UNL     1     -46.264  -9.667 -27.068  0.00  0.00    +0.000 C 
ATOM      6  C   UNL     1     -46.820 -11.016 -27.397  0.00  0.00    +0.000 C 
ATOM      7  O   UNL     1     -47.361 -11.698 -26.489  0.00  0.00    +0.000 OA
ATOM      8  N   UNL     1     -46.669 -11.551 -28.719  0.00  0.00    +0.000 N 
ATOM      9  C   UNL     1     -46.227 -10.686 -29.787  0.00  0.00    +0.000 A 
ATOM     10  C   UNL     1     -46.049  -9.305 -29.547  0.00  0.00    +0.000 A 
ATOM     11  C   UNL     1     -45.605  -8.482 -30.594  0.00  0.00    +0.000 A 
ATOM     12  C   UNL     1     -45.355  -9.008 -31.862  0.00  0.00    +0.000 A 
ATOM     13  C   UNL     1     -45.544 -10.368 -32.100  0.00  0.00    +0.000 A 
ATOM     14  C   UNL     1     -45.979 -11.202 -31.069  0.00  0.00    +0.000 A 
ATOM     15  H   UNL     1     -46.362  -7.553 -25.913  0.00  0.00    +0.000 HD
ENDROOT
BRANCH   1  20
ATOM     16  C   UNL     1     -47.669  -1.598 -24.734  0.00  0.00    +0.000 C 
ATOM     17  C   UNL     1     -47.377  -2.969 -25.233  0.00  0.00    +0.000 A 
ATOM     18  C   UNL     1     -47.127  -4.002 -24.328  0.00  0.00    +0.000 A 
ATOM     19  C   UNL     1     -46.852  -5.290 -24.798  0.00  0.00    +0.000 A 
ATOM     20  C   UNL     1     -46.825  -5.552 -26.174  0.00  0.00    +0.000 A 
ATOM     21  C   UNL     1     -47.083  -4.511 -27.077  0.00  0.00    +0.000 A 
ATOM     22  C   UNL     1     -47.359  -3.222 -26.608  0.00  0.00    +0.000 A 
ENDBRANCH   1  20
BRANCH   8  23
ATOM     23  C   UNL     1     -46.882 -12.983 -28.935  0.00  0.00    +0.000 C 
BRANCH  23  24
ATOM     24  C   UNL     1     -45.696 -13.766 -28.474  0.00  0.00    +0.000 C 
ATOM     25  O   UNL     1     -44.699 -13.884 -29.235  0.00  0.00    +0.000 OA
ATOM     26  N   UNL     1     -45.698 -14.375 -27.178  0.00  0.00    +0.000 N 
ATOM     27  H   UNL     1     -46.553 -14.459 -26.698  0.00  0.00    +0.000 HD
BRANCH  26  28
ATOM     28  C   UNL     1     -44.488 -14.875 -26.539  0.00  0.00    +0.000 C 
BRANCH  28  29
ATOM     29  C   UNL     1     -44.686 -16.297 -26.095  0.00  0.00    +0.000 A 
ATOM     30  C   UNL     1     -43.878 -17.350 -26.576  0.00  0.00    +0.000 A 
ATOM     31  C   UNL     1     -42.751 -17.105 -27.528  0.00  0.00    +0.000 C 
ATOM     32  C   UNL     1     -44.132 -18.666 -26.160  0.00  0.00    +0.000 A 
ATOM     33  C   UNL     1     -45.185 -18.940 -25.277  0.00  0.00    +0.000 A 
ATOM     34  C   UNL     1     -45.988 -17.897 -24.804  0.00  0.00    +0.000 A 
ATOM     35  C   UNL     1     -45.737 -16.581 -25.209  0.00  0.00    +0.000 A 
ENDBRANCH  28  29
ENDBRANCH  26  28
ENDBRANCH  23  24
ENDBRANCH   8  23
TORSDOF 5
ENDMDL
