MODEL 1
REMARK VINA RESULT:      -7.8      0.000      0.000
REMARK  Name = ZINC000253471169 PubChem-124891265
REMARK  9 active torsions:
REMARK  status: ('A' for Active; 'I' for Inactive)
REMARK    1  A    between atoms: C_1  and  C_2
REMARK    2  A    between atoms: C_1  and  C_18
REMARK    3  A    between atoms: C_1  and  C_25
REMARK    4  A    between atoms: C_3  and  O_4
REMARK    5  A    between atoms: C_15  and  O_24
REMARK    6  A    between atoms: C_20  and  O_21
REMARK    7  A    between atoms: C_25  and  C_26
REMARK    8  A    between atoms: N_28  and  C_30
REMARK    9  A    between atoms: C_30  and  C_31
REMARK                            x       y       z     vdW  Elec       q    Type
REMARK                         _______ _______ _______ _____ _____    ______ ____
ROOT
ATOM      1  C   UNL     1     -46.221  -5.559 -31.081  0.00  0.00    +0.000 C 
ENDROOT
BRANCH   1   2
ATOM      2  C   UNL     1     -45.092  -4.615 -31.406  0.00  0.00    +0.000 A 
ATOM      3  C   UNL     1     -45.393  -3.363 -31.960  0.00  0.00    +0.000 A 
ATOM      4  C   UNL     1     -44.355  -2.481 -32.277  0.00  0.00    +0.000 A 
ATOM      5  C   UNL     1     -44.610  -1.215 -32.820  0.00  0.00    +0.000 A 
ATOM      6  C   UNL     1     -43.547  -0.360 -33.130  0.00  0.00    +0.000 A 
ATOM      7  C   UNL     1     -42.229  -0.767 -32.895  0.00  0.00    +0.000 A 
ATOM      8  C   UNL     1     -41.969  -2.027 -32.350  0.00  0.00    +0.000 A 
ATOM      9  C   UNL     1     -43.026  -2.888 -32.038  0.00  0.00    +0.000 A 
ATOM     10  O   UNL     1     -42.773  -4.083 -31.514  0.00  0.00    +0.000 OA
ATOM     11  C   UNL     1     -43.734  -4.944 -31.193  0.00  0.00    +0.000 A 
ATOM     12  O   UNL     1     -43.414  -6.055 -30.691  0.00  0.00    +0.000 OA
BRANCH   3  13
ATOM     13  O   UNL     1     -46.719  -2.998 -32.189  0.00  0.00    +0.000 OA
ATOM     14  H   UNL     1     -47.189  -2.511 -31.541  0.00  0.00    +0.000 HD
ENDBRANCH   3  13
ENDBRANCH   1   2
BRANCH   1  18
ATOM     15  C   UNL     1     -46.186  -9.172 -33.449  0.00  0.00    +0.000 A 
ATOM     16  C   UNL     1     -46.023  -9.237 -32.061  0.00  0.00    +0.000 A 
ATOM     17  C   UNL     1     -46.024  -8.077 -31.286  0.00  0.00    +0.000 A 
ATOM     18  C   UNL     1     -46.181  -6.824 -31.890  0.00  0.00    +0.000 A 
ATOM     19  C   UNL     1     -46.342  -6.748 -33.275  0.00  0.00    +0.000 A 
ATOM     20  C   UNL     1     -46.346  -7.906 -34.059  0.00  0.00    +0.000 A 
BRANCH  20  21
ATOM     21  O   UNL     1     -46.520  -7.773 -35.431  0.00  0.00    +0.000 OA
ATOM     22  H   UNL     1     -47.123  -7.139 -35.768  0.00  0.00    +0.000 HD
ENDBRANCH  20  21
BRANCH  15  24
ATOM     23  C   UNL     1     -45.764 -11.631 -33.621  0.00  0.00    +0.000 C 
ATOM     24  O   UNL     1     -46.181 -10.384 -34.157  0.00  0.00    +0.000 OA
ENDBRANCH  15  24
ENDBRANCH   1  18
BRANCH   1  25
ATOM     25  C   UNL     1     -46.401  -5.787 -29.578  0.00  0.00    +0.000 C 
BRANCH  25  26
ATOM     26  C   UNL     1     -47.050  -4.609 -28.933  0.00  0.00    +0.000 C 
ATOM     27  O   UNL     1     -47.753  -3.829 -29.627  0.00  0.00    +0.000 OA
ATOM     28  N   UNL     1     -46.875  -4.380 -27.534  0.00  0.00    +0.000 N 
ATOM     29  H   UNL     1     -46.248  -4.951 -27.035  0.00  0.00    +0.000 HD
BRANCH  28  30
ATOM     30  C   UNL     1     -47.589  -3.334 -26.821  0.00  0.00    +0.000 C 
BRANCH  30  31
ATOM     31  C   UNL     1     -47.342  -3.473 -25.361  0.00  0.00    +0.000 A 
ATOM     32  C   UNL     1     -47.389  -2.330 -24.531  0.00  0.00    +0.000 A 
ATOM     33  C   UNL     1     -47.184  -2.444 -23.145  0.00  0.00    +0.000 A 
ATOM     34  C   UNL     1     -46.941  -3.716 -22.635  0.00  0.00    +0.000 A 
ATOM     35  C   UNL     1     -46.900  -4.816 -23.429  0.00  0.00    +0.000 A 
ATOM     36  C   UNL     1     -47.101  -4.743 -24.806  0.00  0.00    +0.000 A 
ATOM     37  O   UNL     1     -46.638  -5.930 -22.656  0.00  0.00    +0.000 OA
ATOM     38  C   UNL     1     -46.501  -5.505 -21.292  0.00  0.00    +0.000 C 
ATOM     39  O   UNL     1     -46.706  -4.085 -21.325  0.00  0.00    +0.000 OA
ENDBRANCH  30  31
ENDBRANCH  28  30
ENDBRANCH  25  26
ENDBRANCH   1  25
TORSDOF 9
ENDMDL
MODEL 2
REMARK VINA RESULT:      -7.7      1.769      5.685
REMARK  Name = ZINC000253471169 PubChem-124891265
REMARK  9 active torsions:
REMARK  status: ('A' for Active; 'I' for Inactive)
REMARK    1  A    between atoms: C_1  and  C_2
REMARK    2  A    between atoms: C_1  and  C_18
REMARK    3  A    between atoms: C_1  and  C_25
REMARK    4  A    between atoms: C_3  and  O_4
REMARK    5  A    between atoms: C_15  and  O_24
REMARK    6  A    between atoms: C_20  and  O_21
REMARK    7  A    between atoms: C_25  and  C_26
REMARK    8  A    between atoms: N_28  and  C_30
REMARK    9  A    between atoms: C_30  and  C_31
REMARK                            x       y       z     vdW  Elec       q    Type
REMARK                         _______ _______ _______ _____ _____    ______ ____
ROOT
ATOM      1  C   UNL     1     -45.578  -4.392 -31.689  0.00  0.00    +0.000 C 
ENDROOT
BRANCH   1   2
ATOM      2  C   UNL     1     -45.804  -5.232 -32.920  0.00  0.00    +0.000 A 
ATOM      3  C   UNL     1     -45.151  -6.468 -33.027  0.00  0.00    +0.000 A 
ATOM      4  C   UNL     1     -45.343  -7.253 -34.168  0.00  0.00    +0.000 A 
ATOM      5  C   UNL     1     -44.721  -8.500 -34.312  0.00  0.00    +0.000 A 
ATOM      6  C   UNL     1     -44.932  -9.258 -35.469  0.00  0.00    +0.000 A 
ATOM      7  C   UNL     1     -45.766  -8.772 -36.482  0.00  0.00    +0.000 A 
ATOM      8  C   UNL     1     -46.393  -7.530 -36.342  0.00  0.00    +0.000 A 
ATOM      9  C   UNL     1     -46.187  -6.767 -35.189  0.00  0.00    +0.000 A 
ATOM     10  O   UNL     1     -46.789  -5.590 -35.058  0.00  0.00    +0.000 OA
ATOM     11  C   UNL     1     -46.637  -4.820 -33.984  0.00  0.00    +0.000 A 
ATOM     12  O   UNL     1     -47.251  -3.721 -33.931  0.00  0.00    +0.000 OA
BRANCH   3  13
ATOM     13  O   UNL     1     -44.319  -6.913 -32.000  0.00  0.00    +0.000 OA
ATOM     14  H   UNL     1     -44.691  -7.241 -31.206  0.00  0.00    +0.000 HD
ENDBRANCH   3  13
ENDBRANCH   1   2
BRANCH   1  18
ATOM     15  C   UNL     1     -42.756  -1.175 -32.281  0.00  0.00    +0.000 A 
ATOM     16  C   UNL     1     -44.114  -0.896 -32.091  0.00  0.00    +0.000 A 
ATOM     17  C   UNL     1     -45.037  -1.927 -31.907  0.00  0.00    +0.000 A 
ATOM     18  C   UNL     1     -44.616  -3.261 -31.918  0.00  0.00    +0.000 A 
ATOM     19  C   UNL     1     -43.264  -3.551 -32.110  0.00  0.00    +0.000 A 
ATOM     20  C   UNL     1     -42.331  -2.524 -32.291  0.00  0.00    +0.000 A 
BRANCH  20  21
ATOM     21  O   UNL     1     -40.997  -2.869 -32.467  0.00  0.00    +0.000 OA
ATOM     22  H   UNL     1     -40.342  -2.515 -31.897  0.00  0.00    +0.000 HD
ENDBRANCH  20  21
BRANCH  15  24
ATOM     23  C   UNL     1     -40.768   0.194 -31.626  0.00  0.00    +0.000 C 
ATOM     24  O   UNL     1     -41.891  -0.084 -32.451  0.00  0.00    +0.000 OA
ENDBRANCH  15  24
ENDBRANCH   1  18
BRANCH   1  25
ATOM     25  C   UNL     1     -46.878  -3.973 -30.998  0.00  0.00    +0.000 C 
BRANCH  25  26
ATOM     26  C   UNL     1     -47.109  -4.774 -29.762  0.00  0.00    +0.000 C 
ATOM     27  O   UNL     1     -47.353  -6.005 -29.855  0.00  0.00    +0.000 OA
ATOM     28  N   UNL     1     -47.046  -4.141 -28.483  0.00  0.00    +0.000 N 
ATOM     29  H   UNL     1     -46.946  -3.163 -28.443  0.00  0.00    +0.000 HD
BRANCH  28  30
ATOM     30  C   UNL     1     -47.125  -4.889 -27.239  0.00  0.00    +0.000 C 
BRANCH  30  31
ATOM     31  C   UNL     1     -47.177  -3.940 -26.095  0.00  0.00    +0.000 A 
ATOM     32  C   UNL     1     -47.307  -2.554 -26.340  0.00  0.00    +0.000 A 
ATOM     33  C   UNL     1     -47.384  -1.644 -25.273  0.00  0.00    +0.000 A 
ATOM     34  C   UNL     1     -47.333  -2.163 -23.982  0.00  0.00    +0.000 A 
ATOM     35  C   UNL     1     -47.213  -3.493 -23.743  0.00  0.00    +0.000 A 
ATOM     36  C   UNL     1     -47.136  -4.426 -24.775  0.00  0.00    +0.000 A 
ATOM     37  O   UNL     1     -47.184  -3.715 -22.381  0.00  0.00    +0.000 OA
ATOM     38  C   UNL     1     -47.287  -2.444 -21.720  0.00  0.00    +0.000 C 
ATOM     39  O   UNL     1     -47.383  -1.483 -22.780  0.00  0.00    +0.000 OA
ENDBRANCH  30  31
ENDBRANCH  28  30
ENDBRANCH  25  26
ENDBRANCH   1  25
TORSDOF 9
ENDMDL
MODEL 3
REMARK VINA RESULT:      -7.7      1.138      1.933
REMARK  Name = ZINC000253471169 PubChem-124891265
REMARK  9 active torsions:
REMARK  status: ('A' for Active; 'I' for Inactive)
REMARK    1  A    between atoms: C_1  and  C_2
REMARK    2  A    between atoms: C_1  and  C_18
REMARK    3  A    between atoms: C_1  and  C_25
REMARK    4  A    between atoms: C_3  and  O_4
REMARK    5  A    between atoms: C_15  and  O_24
REMARK    6  A    between atoms: C_20  and  O_21
REMARK    7  A    between atoms: C_25  and  C_26
REMARK    8  A    between atoms: N_28  and  C_30
REMARK    9  A    between atoms: C_30  and  C_31
REMARK                            x       y       z     vdW  Elec       q    Type
REMARK                         _______ _______ _______ _____ _____    ______ ____
ROOT
ATOM      1  C   UNL     1     -46.141  -5.520 -30.464  0.00  0.00    +0.000 C 
ENDROOT
BRANCH   1   2
ATOM      2  C   UNL     1     -45.047  -4.618 -30.976  0.00  0.00    +0.000 A 
ATOM      3  C   UNL     1     -45.394  -3.377 -31.528  0.00  0.00    +0.000 A 
ATOM      4  C   UNL     1     -44.391  -2.535 -32.017  0.00  0.00    +0.000 A 
ATOM      5  C   UNL     1     -44.690  -1.280 -32.565  0.00  0.00    +0.000 A 
ATOM      6  C   UNL     1     -43.662  -0.465 -33.048  0.00  0.00    +0.000 A 
ATOM      7  C   UNL     1     -42.334  -0.900 -32.984  0.00  0.00    +0.000 A 
ATOM      8  C   UNL     1     -42.029  -2.149 -32.435  0.00  0.00    +0.000 A 
ATOM      9  C   UNL     1     -43.051  -2.970 -31.949  0.00  0.00    +0.000 A 
ATOM     10  O   UNL     1     -42.755  -4.153 -31.423  0.00  0.00    +0.000 OA
ATOM     11  C   UNL     1     -43.681  -4.978 -30.941  0.00  0.00    +0.000 A 
ATOM     12  O   UNL     1     -43.319  -6.079 -30.449  0.00  0.00    +0.000 OA
BRANCH   3  13
ATOM     13  O   UNL     1     -46.731  -2.983 -31.584  0.00  0.00    +0.000 OA
ATOM     14  H   UNL     1     -47.048  -2.506 -32.325  0.00  0.00    +0.000 HD
ENDBRANCH   3  13
ENDBRANCH   1   2
BRANCH   1  18
ATOM     15  C   UNL     1     -46.249  -9.345 -32.469  0.00  0.00    +0.000 A 
ATOM     16  C   UNL     1     -46.062  -8.169 -33.203  0.00  0.00    +0.000 A 
ATOM     17  C   UNL     1     -46.034  -6.926 -32.569  0.00  0.00    +0.000 A 
ATOM     18  C   UNL     1     -46.201  -6.838 -31.182  0.00  0.00    +0.000 A 
ATOM     19  C   UNL     1     -46.390  -8.005 -30.440  0.00  0.00    +0.000 A 
ATOM     20  C   UNL     1     -46.416  -9.255 -31.067  0.00  0.00    +0.000 A 
BRANCH  20  21
ATOM     21  O   UNL     1     -46.597 -10.385 -30.279  0.00  0.00    +0.000 OA
ATOM     22  H   UNL     1     -47.182 -11.062 -30.559  0.00  0.00    +0.000 HD
ENDBRANCH  20  21
BRANCH  15  24
ATOM     23  C   UNL     1     -45.918 -10.688 -34.552  0.00  0.00    +0.000 C 
ATOM     24  O   UNL     1     -46.257 -10.555 -33.179  0.00  0.00    +0.000 OA
ENDBRANCH  15  24
ENDBRANCH   1  18
BRANCH   1  25
ATOM     25  C   UNL     1     -46.157  -5.641 -28.938  0.00  0.00    +0.000 C 
BRANCH  25  26
ATOM     26  C   UNL     1     -46.979  -4.559 -28.324  0.00  0.00    +0.000 C 
ATOM     27  O   UNL     1     -47.756  -3.882 -29.047  0.00  0.00    +0.000 OA
ATOM     28  N   UNL     1     -46.883  -4.303 -26.922  0.00  0.00    +0.000 N 
ATOM     29  H   UNL     1     -46.203  -4.783 -26.398  0.00  0.00    +0.000 HD
BRANCH  28  30
ATOM     30  C   UNL     1     -47.755  -3.360 -26.241  0.00  0.00    +0.000 C 
BRANCH  30  31
ATOM     31  C   UNL     1     -47.412  -3.326 -24.794  0.00  0.00    +0.000 A 
ATOM     32  C   UNL     1     -47.070  -4.525 -24.128  0.00  0.00    +0.000 A 
ATOM     33  C   UNL     1     -46.717  -4.510 -22.768  0.00  0.00    +0.000 A 
ATOM     34  C   UNL     1     -46.717  -3.279 -22.118  0.00  0.00    +0.000 A 
ATOM     35  C   UNL     1     -47.040  -2.126 -22.756  0.00  0.00    +0.000 A 
ATOM     36  C   UNL     1     -47.392  -2.100 -24.104  0.00  0.00    +0.000 A 
ATOM     37  O   UNL     1     -46.958  -1.071 -21.869  0.00  0.00    +0.000 OA
ATOM     38  C   UNL     1     -46.563  -1.593 -20.592  0.00  0.00    +0.000 C 
ATOM     39  O   UNL     1     -46.416  -3.005 -20.798  0.00  0.00    +0.000 OA
ENDBRANCH  30  31
ENDBRANCH  28  30
ENDBRANCH  25  26
ENDBRANCH   1  25
TORSDOF 9
ENDMDL
