MODEL 1
REMARK VINA RESULT:      -6.3      0.000      0.000
REMARK  Name = ZINC000021523792 ZINC21523792
REMARK  6 active torsions:
REMARK  status: ('A' for Active; 'I' for Inactive)
REMARK    1  A    between atoms: C_1  and  C_24
REMARK    2  A    between atoms: C_22  and  O_28
REMARK    3  A    between atoms: C_27  and  O_31
REMARK    4  A    between atoms: O_28  and  C_30
REMARK    5  A    between atoms: O_31  and  C_32
REMARK    6  A    between atoms: C_32  and  C_33
REMARK                            x       y       z     vdW  Elec       q    Type
REMARK                         _______ _______ _______ _____ _____    ______ ____
ROOT
ATOM      1  C   UNL     1     -44.816 -15.980 -26.399  0.00  0.00    +0.000 C 
ATOM      2  C   UNL     1     -45.211 -15.579 -24.986  0.00  0.00    +0.000 A 
ATOM      3  C   UNL     1     -45.786 -14.369 -24.592  0.00  0.00    +0.000 A 
ATOM      4  N   UNL     1     -46.062 -14.383 -23.277  0.00  0.00    +0.000 NA
ATOM      5  N   UNL     1     -45.708 -15.564 -22.800  0.00  0.00    +0.000 N 
ATOM      6  C   UNL     1     -45.220 -16.331 -23.802  0.00  0.00    +0.000 A 
ATOM      7  N   UNL     1     -44.866 -17.712 -23.604  0.00  0.00    +0.000 N 
ATOM      8  C   UNL     1     -44.639 -18.749 -24.560  0.00  0.00    +0.000 C 
ATOM      9  O   UNL     1     -44.344 -19.902 -24.154  0.00  0.00    +0.000 OA
ATOM     10  C   UNL     1     -44.740 -18.514 -26.018  0.00  0.00    +0.000 C 
ATOM     11  S   UNL     1     -43.528 -17.259 -26.464  0.00  0.00    +0.000 S 
ATOM     12  C   UNL     1     -46.140 -13.210 -25.461  0.00  0.00    +0.000 C 
ATOM     13  H   UNL     1     -44.763 -17.983 -22.663  0.00  0.00    +0.000 HD
ATOM     14  C   UNL     1     -45.882 -15.926 -21.420  0.00  0.00    +0.000 A 
ATOM     15  N   UNL     1     -46.604 -15.118 -20.597  0.00  0.00    +0.000 NA
ATOM     16  C   UNL     1     -46.782 -15.429 -19.286  0.00  0.00    +0.000 A 
ATOM     17  C   UNL     1     -46.218 -16.592 -18.764  0.00  0.00    +0.000 A 
ATOM     18  C   UNL     1     -45.480 -17.408 -19.617  0.00  0.00    +0.000 A 
ATOM     19  N   UNL     1     -45.325 -17.064 -20.922  0.00  0.00    +0.000 NA
ATOM     20  C   UNL     1     -44.861 -18.656 -19.100  0.00  0.00    +0.000 C 
ATOM     21  C   UNL     1     -47.575 -14.529 -18.409  0.00  0.00    +0.000 C 
ENDROOT
BRANCH   1  24
ATOM     22  C   UNL     1     -44.884 -13.275 -29.064  0.00  0.00    +0.000 A 
ATOM     23  C   UNL     1     -45.249 -14.346 -28.240  0.00  0.00    +0.000 A 
ATOM     24  C   UNL     1     -44.382 -14.828 -27.256  0.00  0.00    +0.000 A 
ATOM     25  C   UNL     1     -43.123 -14.240 -27.097  0.00  0.00    +0.000 A 
ATOM     26  C   UNL     1     -42.743 -13.173 -27.909  0.00  0.00    +0.000 A 
ATOM     27  C   UNL     1     -43.611 -12.674 -28.895  0.00  0.00    +0.000 A 
BRANCH  22  28
ATOM     28  O   UNL     1     -45.823 -12.856 -30.018  0.00  0.00    +0.000 OA
BRANCH  28  30
ATOM     29  C   UNL     1     -46.720 -10.642 -29.826  0.00  0.00    +0.000 C 
ATOM     30  C   UNL     1     -47.006 -12.124 -29.727  0.00  0.00    +0.000 C 
ENDBRANCH  28  30
ENDBRANCH  22  28
BRANCH  27  31
ATOM     31  O   UNL     1     -43.216 -11.599 -29.703  0.00  0.00    +0.000 OA
BRANCH  31  32
ATOM     32  C   UNL     1     -42.713 -11.753 -31.027  0.00  0.00    +0.000 C 
BRANCH  32  33
ATOM     33  C   UNL     1     -43.590 -11.037 -31.997  0.00  0.00    +0.000 C 
ATOM     34  O   UNL     1     -43.386  -9.823 -32.253  0.00  0.00    +0.000 OA
ATOM     35  N   UNL     1     -44.673 -11.722 -32.615  0.00  0.00    +0.000 N 
ATOM     36  H   UNL     1     -44.833 -12.672 -32.415  0.00  0.00    +0.000 HD
ATOM     37  H   UNL     1     -45.261 -11.244 -33.243  0.00  0.00    +0.000 HD
ENDBRANCH  32  33
ENDBRANCH  31  32
ENDBRANCH  27  31
ENDBRANCH   1  24
TORSDOF 6
ENDMDL
MODEL 2
REMARK VINA RESULT:      -6.2      7.304      9.751
REMARK  Name = ZINC000021523792 ZINC21523792
REMARK  6 active torsions:
REMARK  status: ('A' for Active; 'I' for Inactive)
REMARK    1  A    between atoms: C_1  and  C_24
REMARK    2  A    between atoms: C_22  and  O_28
REMARK    3  A    between atoms: C_27  and  O_31
REMARK    4  A    between atoms: O_28  and  C_30
REMARK    5  A    between atoms: O_31  and  C_32
REMARK    6  A    between atoms: C_32  and  C_33
REMARK                            x       y       z     vdW  Elec       q    Type
REMARK                         _______ _______ _______ _____ _____    ______ ____
ROOT
ATOM      1  C   UNL     1     -46.220  -7.429 -29.751  0.00  0.00    +0.000 C 
ATOM      2  C   UNL     1     -46.347  -6.566 -28.505  0.00  0.00    +0.000 A 
ATOM      3  C   UNL     1     -46.466  -5.175 -28.462  0.00  0.00    +0.000 A 
ATOM      4  N   UNL     1     -46.623  -4.754 -27.196  0.00  0.00    +0.000 NA
ATOM      5  N   UNL     1     -46.632  -5.817 -26.412  0.00  0.00    +0.000 N 
ATOM      6  C   UNL     1     -46.503  -6.936 -27.162  0.00  0.00    +0.000 A 
ATOM      7  N   UNL     1     -46.599  -8.254 -26.591  0.00  0.00    +0.000 N 
ATOM      8  C   UNL     1     -46.799  -9.518 -27.226  0.00  0.00    +0.000 C 
ATOM      9  O   UNL     1     -46.861 -10.556 -26.518  0.00  0.00    +0.000 OA
ATOM     10  C   UNL     1     -46.937  -9.651 -28.694  0.00  0.00    +0.000 C 
ATOM     11  S   UNL     1     -45.425  -9.034 -29.452  0.00  0.00    +0.000 S 
ATOM     12  C   UNL     1     -46.495  -4.234 -29.618  0.00  0.00    +0.000 C 
ATOM     13  H   UNL     1     -46.514  -8.289 -25.610  0.00  0.00    +0.000 HD
ATOM     14  C   UNL     1     -46.801  -5.729 -24.987  0.00  0.00    +0.000 A 
ATOM     15  N   UNL     1     -47.154  -4.541 -24.422  0.00  0.00    +0.000 NA
ATOM     16  C   UNL     1     -47.316  -4.423 -23.078  0.00  0.00    +0.000 A 
ATOM     17  C   UNL     1     -47.117  -5.529 -22.253  0.00  0.00    +0.000 A 
ATOM     18  C   UNL     1     -46.755  -6.737 -22.844  0.00  0.00    +0.000 A 
ATOM     19  N   UNL     1     -46.603  -6.816 -24.192  0.00  0.00    +0.000 NA
ATOM     20  C   UNL     1     -46.533  -7.939 -22.001  0.00  0.00    +0.000 C 
ATOM     21  C   UNL     1     -47.700  -3.114 -22.488  0.00  0.00    +0.000 C 
ENDROOT
BRANCH   1  24
ATOM     22  C   UNL     1     -45.616  -5.707 -33.083  0.00  0.00    +0.000 A 
ATOM     23  C   UNL     1     -46.241  -6.339 -32.000  0.00  0.00    +0.000 A 
ATOM     24  C   UNL     1     -45.508  -6.752 -30.885  0.00  0.00    +0.000 A 
ATOM     25  C   UNL     1     -44.125  -6.543 -30.851  0.00  0.00    +0.000 A 
ATOM     26  C   UNL     1     -43.488  -5.915 -31.920  0.00  0.00    +0.000 A 
ATOM     27  C   UNL     1     -44.217  -5.487 -33.042  0.00  0.00    +0.000 A 
BRANCH  22  28
ATOM     28  O   UNL     1     -46.436  -5.322 -34.154  0.00  0.00    +0.000 OA
BRANCH  28  30
ATOM     29  C   UNL     1     -46.769  -3.033 -33.526  0.00  0.00    +0.000 C 
ATOM     30  C   UNL     1     -47.401  -4.280 -34.105  0.00  0.00    +0.000 C 
ENDBRANCH  28  30
ENDBRANCH  22  28
BRANCH  27  31
ATOM     31  O   UNL     1     -43.562  -4.856 -34.109  0.00  0.00    +0.000 OA
BRANCH  31  32
ATOM     32  C   UNL     1     -42.369  -4.093 -33.960  0.00  0.00    +0.000 C 
BRANCH  32  33
ATOM     33  C   UNL     1     -42.686  -2.740 -33.421  0.00  0.00    +0.000 C 
ATOM     34  O   UNL     1     -42.334  -2.429 -32.255  0.00  0.00    +0.000 OA
ATOM     35  N   UNL     1     -43.410  -1.810 -34.217  0.00  0.00    +0.000 N 
ATOM     36  H   UNL     1     -43.687  -2.052 -35.130  0.00  0.00    +0.000 HD
ATOM     37  H   UNL     1     -43.634  -0.922 -33.854  0.00  0.00    +0.000 HD
ENDBRANCH  32  33
ENDBRANCH  31  32
ENDBRANCH  27  31
ENDBRANCH   1  24
TORSDOF 6
ENDMDL
MODEL 3
REMARK VINA RESULT:      -5.9      6.320     12.944
REMARK  Name = ZINC000021523792 ZINC21523792
REMARK  6 active torsions:
REMARK  status: ('A' for Active; 'I' for Inactive)
REMARK    1  A    between atoms: C_1  and  C_24
REMARK    2  A    between atoms: C_22  and  O_28
REMARK    3  A    between atoms: C_27  and  O_31
REMARK    4  A    between atoms: O_28  and  C_30
REMARK    5  A    between atoms: O_31  and  C_32
REMARK    6  A    between atoms: C_32  and  C_33
REMARK                            x       y       z     vdW  Elec       q    Type
REMARK                         _______ _______ _______ _____ _____    ______ ____
ROOT
ATOM      1  C   UNL     1     -46.317  -6.740 -30.765  0.00  0.00    +0.000 C 
ATOM      2  C   UNL     1     -44.909  -6.412 -31.237  0.00  0.00    +0.000 A 
ATOM      3  C   UNL     1     -43.916  -7.326 -31.597  0.00  0.00    +0.000 A 
ATOM      4  N   UNL     1     -42.816  -6.684 -32.026  0.00  0.00    +0.000 NA
ATOM      5  N   UNL     1     -43.060  -5.386 -31.979  0.00  0.00    +0.000 N 
ATOM      6  C   UNL     1     -44.323  -5.175 -31.541  0.00  0.00    +0.000 A 
ATOM      7  N   UNL     1     -44.908  -3.861 -31.501  0.00  0.00    +0.000 N 
ATOM      8  C   UNL     1     -46.277  -3.469 -31.376  0.00  0.00    +0.000 C 
ATOM      9  O   UNL     1     -46.564  -2.244 -31.373  0.00  0.00    +0.000 OA
ATOM     10  C   UNL     1     -47.373  -4.456 -31.252  0.00  0.00    +0.000 C 
ATOM     11  S   UNL     1     -47.078  -5.428 -29.766  0.00  0.00    +0.000 S 
ATOM     12  C   UNL     1     -44.014  -8.814 -31.601  0.00  0.00    +0.000 C 
ATOM     13  H   UNL     1     -44.266  -3.118 -31.570  0.00  0.00    +0.000 HD
ATOM     14  C   UNL     1     -42.096  -4.401 -32.388  0.00  0.00    +0.000 A 
ATOM     15  N   UNL     1     -40.959  -4.794 -33.025  0.00  0.00    +0.000 NA
ATOM     16  C   UNL     1     -40.025  -3.889 -33.418  0.00  0.00    +0.000 A 
ATOM     17  C   UNL     1     -40.222  -2.532 -33.168  0.00  0.00    +0.000 A 
ATOM     18  C   UNL     1     -41.389  -2.144 -32.515  0.00  0.00    +0.000 A 
ATOM     19  N   UNL     1     -42.299  -3.078 -32.137  0.00  0.00    +0.000 NA
ATOM     20  C   UNL     1     -41.638  -0.707 -32.229  0.00  0.00    +0.000 C 
ATOM     21  C   UNL     1     -38.792  -4.346 -34.111  0.00  0.00    +0.000 C 
ENDROOT
BRANCH   1  24
ATOM     22  C   UNL     1     -45.994  -9.277 -27.957  0.00  0.00    +0.000 A 
ATOM     23  C   UNL     1     -45.925  -8.092 -28.701  0.00  0.00    +0.000 A 
ATOM     24  C   UNL     1     -46.416  -8.031 -30.007  0.00  0.00    +0.000 A 
ATOM     25  C   UNL     1     -46.975  -9.173 -30.590  0.00  0.00    +0.000 A 
ATOM     26  C   UNL     1     -47.051 -10.361 -29.864  0.00  0.00    +0.000 A 
ATOM     27  C   UNL     1     -46.570 -10.431 -28.546  0.00  0.00    +0.000 A 
BRANCH  22  28
ATOM     28  O   UNL     1     -45.482  -9.240 -26.652  0.00  0.00    +0.000 OA
BRANCH  28  30
ATOM     29  C   UNL     1     -47.448  -8.893 -25.325  0.00  0.00    +0.000 C 
ATOM     30  C   UNL     1     -46.020  -8.465 -25.589  0.00  0.00    +0.000 C 
ENDBRANCH  28  30
ENDBRANCH  22  28
BRANCH  27  31
ATOM     31  O   UNL     1     -46.654 -11.632 -27.828  0.00  0.00    +0.000 OA
BRANCH  31  32
ATOM     32  C   UNL     1     -47.042 -12.872 -28.410  0.00  0.00    +0.000 C 
BRANCH  32  33
ATOM     33  C   UNL     1     -45.843 -13.724 -28.654  0.00  0.00    +0.000 C 
ATOM     34  O   UNL     1     -45.432 -14.503 -27.757  0.00  0.00    +0.000 OA
ATOM     35  N   UNL     1     -45.150 -13.638 -29.893  0.00  0.00    +0.000 N 
ATOM     36  H   UNL     1     -45.470 -13.028 -30.596  0.00  0.00    +0.000 HD
ATOM     37  H   UNL     1     -44.348 -14.189 -30.046  0.00  0.00    +0.000 HD
ENDBRANCH  32  33
ENDBRANCH  31  32
ENDBRANCH  27  31
ENDBRANCH   1  24
TORSDOF 6
ENDMDL
