MODEL 1
REMARK VINA RESULT:      -6.7      0.000      0.000
REMARK  Name = ZINC000031809867
REMARK  2 active torsions:
REMARK  status: ('A' for Active; 'I' for Inactive)
REMARK    1  A    between atoms: C_7  and  C_24
REMARK    2  A    between atoms: C_28  and  O_29
REMARK                            x       y       z     vdW  Elec       q    Type
REMARK                         _______ _______ _______ _____ _____    ______ ____
ROOT
ATOM      1  C   UNL     1     -43.313 -12.218 -24.650  0.00  0.00    +0.000 C 
ATOM      2  C   UNL     1     -44.071 -13.334 -24.017  0.00  0.00    +0.000 A 
ATOM      3  N   UNL     1     -44.690 -13.227 -22.828  0.00  0.00    +0.000 NA
ATOM      4  N   UNL     1     -45.265 -14.391 -22.571  0.00  0.00    +0.000 N 
ATOM      5  C   UNL     1     -45.053 -15.243 -23.600  0.00  0.00    +0.000 A 
ATOM      6  C   UNL     1     -44.262 -14.597 -24.549  0.00  0.00    +0.000 A 
ATOM      7  C   UNL     1     -43.760 -15.036 -25.896  0.00  0.00    +0.000 C 
ATOM      8  S   UNL     1     -43.399 -16.814 -26.036  0.00  0.00    +0.000 S 
ATOM      9  C   UNL     1     -45.151 -17.258 -26.056  0.00  0.00    +0.000 C 
ATOM     10  C   UNL     1     -45.617 -17.547 -24.678  0.00  0.00    +0.000 C 
ATOM     11  O   UNL     1     -46.063 -18.697 -24.427  0.00  0.00    +0.000 OA
ATOM     12  N   UNL     1     -45.618 -16.565 -23.638  0.00  0.00    +0.000 N 
ATOM     13  H   UNL     1     -46.081 -16.839 -22.814  0.00  0.00    +0.000 HD
ATOM     14  C   UNL     1     -46.044 -14.623 -21.388  0.00  0.00    +0.000 A 
ATOM     15  N   UNL     1     -46.902 -13.661 -20.934  0.00  0.00    +0.000 NA
ATOM     16  C   UNL     1     -47.638 -13.839 -19.790  0.00  0.00    +0.000 A 
ATOM     17  N   UNL     1     -47.519 -14.989 -19.061  0.00  0.00    +0.000 NA
ATOM     18  C   UNL     1     -46.658 -15.937 -19.502  0.00  0.00    +0.000 A 
ATOM     19  N   UNL     1     -46.366 -17.094 -18.896  0.00  0.00    +0.000 N 
ATOM     20  C   UNL     1     -45.416 -17.622 -19.714  0.00  0.00    +0.000 A 
ATOM     21  N   UNL     1     -45.112 -16.838 -20.784  0.00  0.00    +0.000 NA
ATOM     22  C   UNL     1     -45.925 -15.785 -20.625  0.00  0.00    +0.000 A 
ATOM     23  H   UNL     1     -46.744 -17.468 -18.067  0.00  0.00    +0.000 HD
ENDROOT
BRANCH   7  24
ATOM     24  C   UNL     1     -44.527 -14.478 -27.064  0.00  0.00    +0.000 A 
ATOM     25  C   UNL     1     -43.962 -14.544 -28.343  0.00  0.00    +0.000 A 
ATOM     26  C   UNL     1     -44.656 -14.042 -29.447  0.00  0.00    +0.000 A 
ATOM     27  C   UNL     1     -45.922 -13.475 -29.279  0.00  0.00    +0.000 A 
ATOM     28  C   UNL     1     -46.495 -13.410 -28.007  0.00  0.00    +0.000 A 
ATOM     29  C   UNL     1     -45.801 -13.910 -26.902  0.00  0.00    +0.000 A 
BRANCH  28  30
ATOM     30  O   UNL     1     -47.753 -12.848 -27.840  0.00  0.00    +0.000 OA
ATOM     31  H   UNL     1     -48.196 -12.466 -28.571  0.00  0.00    +0.000 HD
ENDBRANCH  28  30
ENDBRANCH   7  24
TORSDOF 2
ENDMDL
MODEL 2
REMARK VINA RESULT:      -6.7      9.721     13.263
REMARK  Name = ZINC000031809867
REMARK  2 active torsions:
REMARK  status: ('A' for Active; 'I' for Inactive)
REMARK    1  A    between atoms: C_7  and  C_24
REMARK    2  A    between atoms: C_28  and  O_29
REMARK                            x       y       z     vdW  Elec       q    Type
REMARK                         _______ _______ _______ _____ _____    ______ ____
ROOT
ATOM      1  C   UNL     1     -42.570  -6.949 -27.544  0.00  0.00    +0.000 C 
ATOM      2  C   UNL     1     -43.033  -6.235 -28.766  0.00  0.00    +0.000 A 
ATOM      3  N   UNL     1     -42.201  -5.797 -29.728  0.00  0.00    +0.000 NA
ATOM      4  N   UNL     1     -42.939  -5.219 -30.662  0.00  0.00    +0.000 N 
ATOM      5  C   UNL     1     -44.247  -5.308 -30.332  0.00  0.00    +0.000 A 
ATOM      6  C   UNL     1     -44.346  -5.944 -29.095  0.00  0.00    +0.000 A 
ATOM      7  C   UNL     1     -45.537  -6.348 -28.272  0.00  0.00    +0.000 C 
ATOM      8  S   UNL     1     -46.972  -5.236 -28.406  0.00  0.00    +0.000 S 
ATOM      9  C   UNL     1     -47.374  -5.813 -30.072  0.00  0.00    +0.000 C 
ATOM     10  C   UNL     1     -46.717  -4.947 -31.081  0.00  0.00    +0.000 C 
ATOM     11  O   UNL     1     -47.443  -4.321 -31.895  0.00  0.00    +0.000 OA
ATOM     12  N   UNL     1     -45.295  -4.828 -31.192  0.00  0.00    +0.000 N 
ATOM     13  H   UNL     1     -44.984  -4.338 -31.987  0.00  0.00    +0.000 HD
ATOM     14  C   UNL     1     -42.373  -4.663 -31.858  0.00  0.00    +0.000 A 
ATOM     15  N   UNL     1     -41.371  -5.324 -32.513  0.00  0.00    +0.000 NA
ATOM     16  C   UNL     1     -40.788  -4.805 -33.641  0.00  0.00    +0.000 A 
ATOM     17  N   UNL     1     -41.189  -3.596 -34.135  0.00  0.00    +0.000 NA
ATOM     18  C   UNL     1     -42.172  -2.933 -33.480  0.00  0.00    +0.000 A 
ATOM     19  N   UNL     1     -42.652  -1.721 -33.777  0.00  0.00    +0.000 N 
ATOM     20  C   UNL     1     -43.557  -1.511 -32.782  0.00  0.00    +0.000 A 
ATOM     21  N   UNL     1     -43.643  -2.536 -31.891  0.00  0.00    +0.000 NA
ATOM     22  C   UNL     1     -42.761  -3.425 -32.369  0.00  0.00    +0.000 A 
ATOM     23  H   UNL     1     -42.413  -1.130 -34.527  0.00  0.00    +0.000 HD
ENDROOT
BRANCH   7  24
ATOM     24  C   UNL     1     -45.890  -7.808 -28.354  0.00  0.00    +0.000 A 
ATOM     25  C   UNL     1     -45.407  -8.565 -29.427  0.00  0.00    +0.000 A 
ATOM     26  C   UNL     1     -45.710  -9.925 -29.524  0.00  0.00    +0.000 A 
ATOM     27  C   UNL     1     -46.495 -10.538 -28.544  0.00  0.00    +0.000 A 
ATOM     28  C   UNL     1     -46.977  -9.790 -27.466  0.00  0.00    +0.000 A 
ATOM     29  C   UNL     1     -46.675  -8.430 -27.370  0.00  0.00    +0.000 A 
BRANCH  28  30
ATOM     30  O   UNL     1     -47.756 -10.399 -26.492  0.00  0.00    +0.000 OA
ATOM     31  H   UNL     1     -48.481 -10.938 -26.741  0.00  0.00    +0.000 HD
ENDBRANCH  28  30
ENDBRANCH   7  24
TORSDOF 2
ENDMDL
MODEL 3
REMARK VINA RESULT:      -6.3      5.032      8.083
REMARK  Name = ZINC000031809867
REMARK  2 active torsions:
REMARK  status: ('A' for Active; 'I' for Inactive)
REMARK    1  A    between atoms: C_7  and  C_24
REMARK    2  A    between atoms: C_28  and  O_29
REMARK                            x       y       z     vdW  Elec       q    Type
REMARK                         _______ _______ _______ _____ _____    ______ ____
ROOT
ATOM      1  C   UNL     1     -41.658 -16.683 -21.036  0.00  0.00    +0.000 C 
ATOM      2  C   UNL     1     -41.868 -17.721 -22.083  0.00  0.00    +0.000 A 
ATOM      3  N   UNL     1     -40.936 -18.630 -22.423  0.00  0.00    +0.000 NA
ATOM      4  N   UNL     1     -41.452 -19.395 -23.370  0.00  0.00    +0.000 N 
ATOM      5  C   UNL     1     -42.724 -19.014 -23.626  0.00  0.00    +0.000 A 
ATOM      6  C   UNL     1     -43.022 -17.914 -22.823  0.00  0.00    +0.000 A 
ATOM      7  C   UNL     1     -44.284 -17.115 -22.652  0.00  0.00    +0.000 C 
ATOM      8  S   UNL     1     -45.299 -16.957 -24.155  0.00  0.00    +0.000 S 
ATOM      9  C   UNL     1     -45.853 -18.676 -24.068  0.00  0.00    +0.000 C 
ATOM     10  C   UNL     1     -44.953 -19.541 -24.869  0.00  0.00    +0.000 C 
ATOM     11  O   UNL     1     -45.443 -20.181 -25.835  0.00  0.00    +0.000 OA
ATOM     12  N   UNL     1     -43.565 -19.709 -24.564  0.00  0.00    +0.000 N 
ATOM     13  H   UNL     1     -43.113 -20.414 -25.080  0.00  0.00    +0.000 HD
ATOM     14  C   UNL     1     -40.734 -20.496 -23.948  0.00  0.00    +0.000 A 
ATOM     15  N   UNL     1     -39.986 -21.319 -23.153  0.00  0.00    +0.000 NA
ATOM     16  C   UNL     1     -39.265 -22.361 -23.677  0.00  0.00    +0.000 A 
ATOM     17  N   UNL     1     -39.265 -22.597 -25.023  0.00  0.00    +0.000 NA
ATOM     18  C   UNL     1     -39.994 -21.774 -25.814  0.00  0.00    +0.000 A 
ATOM     19  N   UNL     1     -40.070 -21.812 -27.149  0.00  0.00    +0.000 N 
ATOM     20  C   UNL     1     -40.868 -20.745 -27.429  0.00  0.00    +0.000 A 
ATOM     21  N   UNL     1     -41.275 -20.058 -26.326  0.00  0.00    +0.000 NA
ATOM     22  C   UNL     1     -40.713 -20.744 -25.321  0.00  0.00    +0.000 A 
ATOM     23  H   UNL     1     -39.654 -22.450 -27.773  0.00  0.00    +0.000 HD
ENDROOT
BRANCH   7  24
ATOM     24  C   UNL     1     -45.076 -17.449 -21.417  0.00  0.00    +0.000 A 
ATOM     25  C   UNL     1     -45.678 -16.413 -20.695  0.00  0.00    +0.000 A 
ATOM     26  C   UNL     1     -46.427 -16.694 -19.549  0.00  0.00    +0.000 A 
ATOM     27  C   UNL     1     -46.581 -18.015 -19.121  0.00  0.00    +0.000 A 
ATOM     28  C   UNL     1     -45.987 -19.056 -19.839  0.00  0.00    +0.000 A 
ATOM     29  C   UNL     1     -45.237 -18.775 -20.984  0.00  0.00    +0.000 A 
BRANCH  28  30
ATOM     30  O   UNL     1     -46.141 -20.368 -19.415  0.00  0.00    +0.000 OA
ATOM     31  H   UNL     1     -46.999 -20.724 -19.293  0.00  0.00    +0.000 HD
ENDBRANCH  28  30
ENDBRANCH   7  24
TORSDOF 2
ENDMDL
