MODEL 1
REMARK VINA RESULT:      -6.5      0.000      0.000
REMARK  Name = ZINC000096182884 ZINC96182884 PubChem-97458176
REMARK  3 active torsions:
REMARK  status: ('A' for Active; 'I' for Inactive)
REMARK    1  A    between atoms: C_2  and  C_13
REMARK    2  A    between atoms: C_3  and  C_6
REMARK    3  A    between atoms: C_7  and  N_20
REMARK                            x       y       z     vdW  Elec       q    Type
REMARK                         _______ _______ _______ _____ _____    ______ ____
ROOT
ATOM      1  C   UNL     1     -43.826  -5.704 -33.480  0.00  0.00    +0.000 C 
ATOM      2  C   UNL     1     -44.692  -3.958 -31.879  0.00  0.00    +0.000 C 
ATOM      3  C   UNL     1     -46.010  -3.430 -31.277  0.00  0.00    +0.000 C 
ATOM      4  C   UNL     1     -47.382  -4.337 -32.915  0.00  0.00    +0.000 C 
ATOM      5  C   UNL     1     -46.215  -4.957 -33.608  0.00  0.00    +0.000 C 
ATOM      6  N   UNL     1     -44.929  -4.897 -32.981  0.00  0.00    +0.000 N 
ATOM      7  O   UNL     1     -47.001  -3.150 -32.253  0.00  0.00    +0.000 OA
ATOM      8  O   UNL     1     -46.372  -5.540 -34.713  0.00  0.00    +0.000 OA
ENDROOT
BRANCH   2   9
ATOM      9  C   UNL     1     -43.821  -2.822 -32.325  0.00  0.00    +0.000 A 
ATOM     10  C   UNL     1     -42.434  -2.930 -32.180  0.00  0.00    +0.000 A 
ATOM     11  C   UNL     1     -41.602  -1.887 -32.595  0.00  0.00    +0.000 A 
ATOM     12  C   UNL     1     -42.154  -0.732 -33.158  0.00  0.00    +0.000 A 
ATOM     13  C   UNL     1     -43.539  -0.620 -33.306  0.00  0.00    +0.000 A 
ATOM     14  C   UNL     1     -44.372  -1.663 -32.892  0.00  0.00    +0.000 A 
ATOM     15  F   UNL     1     -41.347   0.278 -33.559  0.00  0.00    +0.000 F 
ENDBRANCH   2   9
BRANCH   3  16
ATOM     16  C   UNL     1     -46.505  -4.248 -30.120  0.00  0.00    +0.000 C 
ATOM     17  N   UNL     1     -45.726  -5.350 -29.630  0.00  0.00    +0.000 NA
ATOM     18  O   UNL     1     -47.599  -3.936 -29.580  0.00  0.00    +0.000 OA
BRANCH  17  19
ATOM     19  C   UNL     1     -46.058  -6.219 -28.539  0.00  0.00    +0.000 A 
ATOM     20  C   UNL     1     -45.896  -5.827 -27.201  0.00  0.00    +0.000 A 
ATOM     21  C   UNL     1     -46.233  -6.703 -26.163  0.00  0.00    +0.000 A 
ATOM     22  C   UNL     1     -46.733  -7.974 -26.457  0.00  0.00    +0.000 A 
ATOM     23  C   UNL     1     -46.897  -8.370 -27.788  0.00  0.00    +0.000 A 
ATOM     24  C   UNL     1     -46.560  -7.493 -28.824  0.00  0.00    +0.000 A 
ATOM     25  F   UNL     1     -47.381  -9.602 -28.073  0.00  0.00    +0.000 F 
ENDBRANCH  17  19
ENDBRANCH   3  16
TORSDOF 3
ENDMDL
MODEL 2
REMARK VINA RESULT:      -6.4      2.537      7.508
REMARK  Name = ZINC000096182884 ZINC96182884 PubChem-97458176
REMARK  3 active torsions:
REMARK  status: ('A' for Active; 'I' for Inactive)
REMARK    1  A    between atoms: C_2  and  C_13
REMARK    2  A    between atoms: C_3  and  C_6
REMARK    3  A    between atoms: C_7  and  N_20
REMARK                            x       y       z     vdW  Elec       q    Type
REMARK                         _______ _______ _______ _____ _____    ______ ____
ROOT
ATOM      1  C   UNL     1     -43.699  -7.115 -28.531  0.00  0.00    +0.000 C 
ATOM      2  C   UNL     1     -45.312  -7.036 -30.468  0.00  0.00    +0.000 C 
ATOM      3  C   UNL     1     -46.543  -6.257 -30.975  0.00  0.00    +0.000 C 
ATOM      4  C   UNL     1     -47.115  -5.377 -28.905  0.00  0.00    +0.000 C 
ATOM      5  C   UNL     1     -45.941  -6.031 -28.255  0.00  0.00    +0.000 C 
ATOM      6  N   UNL     1     -44.980  -6.697 -29.081  0.00  0.00    +0.000 N 
ATOM      7  O   UNL     1     -47.570  -6.137 -30.003  0.00  0.00    +0.000 OA
ATOM      8  O   UNL     1     -45.795  -5.972 -27.006  0.00  0.00    +0.000 OA
ENDROOT
BRANCH   2   9
ATOM      9  C   UNL     1     -45.522  -8.513 -30.621  0.00  0.00    +0.000 A 
ATOM     10  C   UNL     1     -46.421  -9.164 -29.770  0.00  0.00    +0.000 A 
ATOM     11  C   UNL     1     -46.638 -10.539 -29.898  0.00  0.00    +0.000 A 
ATOM     12  C   UNL     1     -45.958 -11.267 -30.880  0.00  0.00    +0.000 A 
ATOM     13  C   UNL     1     -45.060 -10.620 -31.733  0.00  0.00    +0.000 A 
ATOM     14  C   UNL     1     -44.843  -9.245 -31.606  0.00  0.00    +0.000 A 
ATOM     15  F   UNL     1     -46.169 -12.599 -31.003  0.00  0.00    +0.000 F 
ENDBRANCH   2   9
BRANCH   3  16
ATOM     16  C   UNL     1     -46.191  -4.967 -31.655  0.00  0.00    +0.000 C 
ATOM     17  N   UNL     1     -44.913  -4.355 -31.426  0.00  0.00    +0.000 NA
ATOM     18  O   UNL     1     -47.027  -4.447 -32.441  0.00  0.00    +0.000 OA
BRANCH  17  19
ATOM     19  C   UNL     1     -44.429  -3.134 -31.999  0.00  0.00    +0.000 A 
ATOM     20  C   UNL     1     -43.535  -3.123 -33.081  0.00  0.00    +0.000 A 
ATOM     21  C   UNL     1     -43.086  -1.910 -33.614  0.00  0.00    +0.000 A 
ATOM     22  C   UNL     1     -43.528  -0.702 -33.070  0.00  0.00    +0.000 A 
ATOM     23  C   UNL     1     -44.420  -0.706 -31.993  0.00  0.00    +0.000 A 
ATOM     24  C   UNL     1     -44.868  -1.919 -31.461  0.00  0.00    +0.000 A 
ATOM     25  F   UNL     1     -44.849   0.465 -31.466  0.00  0.00    +0.000 F 
ENDBRANCH  17  19
ENDBRANCH   3  16
TORSDOF 3
ENDMDL
MODEL 3
REMARK VINA RESULT:      -6.3     15.645     17.372
REMARK  Name = ZINC000096182884 ZINC96182884 PubChem-97458176
REMARK  3 active torsions:
REMARK  status: ('A' for Active; 'I' for Inactive)
REMARK    1  A    between atoms: C_2  and  C_13
REMARK    2  A    between atoms: C_3  and  C_6
REMARK    3  A    between atoms: C_7  and  N_20
REMARK                            x       y       z     vdW  Elec       q    Type
REMARK                         _______ _______ _______ _____ _____    ______ ____
ROOT
ATOM      1  C   UNL     1     -41.954 -17.966 -21.227  0.00  0.00    +0.000 C 
ATOM      2  C   UNL     1     -44.472 -18.040 -21.341  0.00  0.00    +0.000 C 
ATOM      3  C   UNL     1     -45.705 -18.339 -20.464  0.00  0.00    +0.000 C 
ATOM      4  C   UNL     1     -44.545 -19.539 -18.851  0.00  0.00    +0.000 C 
ATOM      5  C   UNL     1     -43.248 -19.308 -19.553  0.00  0.00    +0.000 C 
ATOM      6  N   UNL     1     -43.221 -18.425 -20.679  0.00  0.00    +0.000 N 
ATOM      7  O   UNL     1     -45.615 -19.575 -19.770  0.00  0.00    +0.000 OA
ATOM      8  O   UNL     1     -42.197 -19.867 -19.141  0.00  0.00    +0.000 OA
ENDROOT
BRANCH   2   9
ATOM      9  C   UNL     1     -44.598 -18.710 -22.676  0.00  0.00    +0.000 A 
ATOM     10  C   UNL     1     -43.744 -19.774 -22.986  0.00  0.00    +0.000 A 
ATOM     11  C   UNL     1     -43.847 -20.419 -24.223  0.00  0.00    +0.000 A 
ATOM     12  C   UNL     1     -44.806 -20.003 -25.152  0.00  0.00    +0.000 A 
ATOM     13  C   UNL     1     -45.662 -18.942 -24.845  0.00  0.00    +0.000 A 
ATOM     14  C   UNL     1     -45.560 -18.297 -23.609  0.00  0.00    +0.000 A 
ATOM     15  F   UNL     1     -44.905 -20.628 -26.349  0.00  0.00    +0.000 F 
ENDBRANCH   2   9
BRANCH   3  16
ATOM     16  C   UNL     1     -46.117 -17.183 -19.601  0.00  0.00    +0.000 C 
ATOM     17  N   UNL     1     -45.381 -15.951 -19.646  0.00  0.00    +0.000 NA
ATOM     18  O   UNL     1     -47.127 -17.308 -18.859  0.00  0.00    +0.000 OA
BRANCH  17  19
ATOM     19  C   UNL     1     -45.647 -14.763 -18.891  0.00  0.00    +0.000 A 
ATOM     20  C   UNL     1     -45.187 -14.598 -17.575  0.00  0.00    +0.000 A 
ATOM     21  C   UNL     1     -45.466 -13.423 -16.871  0.00  0.00    +0.000 A 
ATOM     22  C   UNL     1     -46.207 -12.405 -17.477  0.00  0.00    +0.000 A 
ATOM     23  C   UNL     1     -46.667 -12.562 -18.788  0.00  0.00    +0.000 A 
ATOM     24  C   UNL     1     -46.388 -13.738 -19.491  0.00  0.00    +0.000 A 
ATOM     25  F   UNL     1     -47.385 -11.575 -19.375  0.00  0.00    +0.000 F 
ENDBRANCH  17  19
ENDBRANCH   3  16
TORSDOF 3
ENDMDL
