MODEL 1
REMARK VINA RESULT:      -5.5      0.000      0.000
REMARK  Name = ZINC000003831424 ZINC03831424 PubChem-6328150
REMARK  9 active torsions:
REMARK  status: ('A' for Active; 'I' for Inactive)
REMARK    1  A    between atoms: N_9  and  C_20
REMARK    2  A    between atoms: C_20  and  C_21
REMARK    3  A    between atoms: C_21  and  O_22
REMARK    4  A    between atoms: C_21  and  C_24
REMARK    5  A    between atoms: C_24  and  O_25
REMARK    6  A    between atoms: C_24  and  C_27
REMARK    7  A    between atoms: C_27  and  O_28
REMARK    8  A    between atoms: C_27  and  C_30
REMARK    9  A    between atoms: C_30  and  O_31
REMARK                            x       y       z     vdW  Elec       q    Type
REMARK                         _______ _______ _______ _____ _____    ______ ____
ROOT
ATOM      1  C   UNL     1     -46.384 -15.173 -18.587  0.00  0.00    +0.000 C 
ATOM      2  C   UNL     1     -46.119 -15.450 -20.028  0.00  0.00    +0.000 A 
ATOM      3  C   UNL     1     -46.209 -14.397 -20.940  0.00  0.00    +0.000 A 
ATOM      4  C   UNL     1     -45.966 -14.610 -22.300  0.00  0.00    +0.000 A 
ATOM      5  C   UNL     1     -45.615 -15.906 -22.768  0.00  0.00    +0.000 A 
ATOM      6  C   UNL     1     -45.544 -16.956 -21.839  0.00  0.00    +0.000 A 
ATOM      7  C   UNL     1     -45.789 -16.739 -20.481  0.00  0.00    +0.000 A 
ATOM      8  C   UNL     1     -45.688 -17.894 -19.543  0.00  0.00    +0.000 C 
ATOM      9  N   UNL     1     -45.369 -16.118 -24.104  0.00  0.00    +0.000 N 
ATOM     10  C   UNL     1     -45.511 -15.087 -24.989  0.00  0.00    +0.000 A 
ATOM     11  N   UNL     1     -45.333 -15.257 -26.326  0.00  0.00    +0.000 NA
ATOM     12  C   UNL     1     -45.473 -14.216 -27.191  0.00  0.00    +0.000 A 
ATOM     13  O   UNL     1     -45.298 -14.402 -28.423  0.00  0.00    +0.000 OA
ATOM     14  N   UNL     1     -45.799 -12.974 -26.736  0.00  0.00    +0.000 N 
ATOM     15  C   UNL     1     -46.001 -12.718 -25.415  0.00  0.00    +0.000 A 
ATOM     16  O   UNL     1     -46.306 -11.554 -25.044  0.00  0.00    +0.000 OA
ATOM     17  C   UNL     1     -45.873 -13.751 -24.490  0.00  0.00    +0.000 A 
ATOM     18  N   UNL     1     -46.082 -13.571 -23.165  0.00  0.00    +0.000 NA
ATOM     19  H   UNL     1     -45.891 -12.238 -27.383  0.00  0.00    +0.000 HD
ENDROOT
BRANCH   9  20
ATOM     20  C   UNL     1     -44.979 -17.447 -24.599  0.00  0.00    +0.000 C 
BRANCH  20  21
ATOM     21  C   UNL     1     -43.459 -17.591 -24.764  0.00  0.00    +0.000 C 
BRANCH  21  22
ATOM     22  O   UNL     1     -42.941 -18.471 -23.811  0.00  0.00    +0.000 OA
ATOM     23  H   UNL     1     -43.624 -19.115 -23.562  0.00  0.00    +0.000 HD
ENDBRANCH  21  22
BRANCH  21  24
ATOM     24  C   UNL     1     -43.069 -18.026 -26.176  0.00  0.00    +0.000 C 
BRANCH  24  25
ATOM     25  O   UNL     1     -44.216 -18.165 -26.965  0.00  0.00    +0.000 OA
ATOM     26  H   UNL     1     -44.130 -18.954 -27.525  0.00  0.00    +0.000 HD
ENDBRANCH  24  25
BRANCH  24  27
ATOM     27  C   UNL     1     -42.106 -17.032 -26.824  0.00  0.00    +0.000 C 
BRANCH  27  28
ATOM     28  O   UNL     1     -42.373 -15.732 -26.387  0.00  0.00    +0.000 OA
ATOM     29  H   UNL     1     -43.327 -15.562 -26.439  0.00  0.00    +0.000 HD
ENDBRANCH  27  28
BRANCH  27  30
ATOM     30  C   UNL     1     -42.212 -17.106 -28.336  0.00  0.00    +0.000 C 
BRANCH  30  31
ATOM     31  O   UNL     1     -43.193 -16.222 -28.786  0.00  0.00    +0.000 OA
ATOM     32  H   UNL     1     -43.070 -15.359 -28.364  0.00  0.00    +0.000 HD
ENDBRANCH  30  31
ENDBRANCH  27  30
ENDBRANCH  24  27
ENDBRANCH  21  24
ENDBRANCH  20  21
ENDBRANCH   9  20
TORSDOF 9
ENDMDL
MODEL 2
REMARK VINA RESULT:      -5.3     10.034     13.618
REMARK  Name = ZINC000003831424 ZINC03831424 PubChem-6328150
REMARK  9 active torsions:
REMARK  status: ('A' for Active; 'I' for Inactive)
REMARK    1  A    between atoms: N_9  and  C_20
REMARK    2  A    between atoms: C_20  and  C_21
REMARK    3  A    between atoms: C_21  and  O_22
REMARK    4  A    between atoms: C_21  and  C_24
REMARK    5  A    between atoms: C_24  and  O_25
REMARK    6  A    between atoms: C_24  and  C_27
REMARK    7  A    between atoms: C_27  and  O_28
REMARK    8  A    between atoms: C_27  and  C_30
REMARK    9  A    between atoms: C_30  and  O_31
REMARK                            x       y       z     vdW  Elec       q    Type
REMARK                         _______ _______ _______ _____ _____    ______ ____
ROOT
ATOM      1  C   UNL     1     -45.486 -11.841 -34.894  0.00  0.00    +0.000 C 
ATOM      2  C   UNL     1     -45.751 -10.466 -34.381  0.00  0.00    +0.000 A 
ATOM      3  C   UNL     1     -46.051 -10.303 -33.027  0.00  0.00    +0.000 A 
ATOM      4  C   UNL     1     -46.303  -9.032 -32.503  0.00  0.00    +0.000 A 
ATOM      5  C   UNL     1     -46.250  -7.888 -33.344  0.00  0.00    +0.000 A 
ATOM      6  C   UNL     1     -45.961  -8.072 -34.706  0.00  0.00    +0.000 A 
ATOM      7  C   UNL     1     -45.711  -9.344 -35.226  0.00  0.00    +0.000 A 
ATOM      8  C   UNL     1     -45.401  -9.474 -36.680  0.00  0.00    +0.000 C 
ATOM      9  N   UNL     1     -46.491  -6.636 -32.831  0.00  0.00    +0.000 N 
ATOM     10  C   UNL     1     -46.832  -6.500 -31.514  0.00  0.00    +0.000 A 
ATOM     11  N   UNL     1     -47.134  -5.291 -30.970  0.00  0.00    +0.000 NA
ATOM     12  C   UNL     1     -47.466  -5.176 -29.656  0.00  0.00    +0.000 A 
ATOM     13  O   UNL     1     -47.737  -4.044 -29.179  0.00  0.00    +0.000 OA
ATOM     14  N   UNL     1     -47.506  -6.274 -28.851  0.00  0.00    +0.000 N 
ATOM     15  C   UNL     1     -47.225  -7.522 -29.315  0.00  0.00    +0.000 A 
ATOM     16  O   UNL     1     -47.280  -8.507 -28.533  0.00  0.00    +0.000 OA
ATOM     17  C   UNL     1     -46.883  -7.693 -30.654  0.00  0.00    +0.000 A 
ATOM     18  N   UNL     1     -46.613  -8.907 -31.187  0.00  0.00    +0.000 NA
ATOM     19  H   UNL     1     -47.746  -6.162 -27.903  0.00  0.00    +0.000 HD
ENDROOT
BRANCH   9  20
ATOM     20  C   UNL     1     -46.412  -5.440 -33.683  0.00  0.00    +0.000 C 
BRANCH  20  21
ATOM     21  C   UNL     1     -45.194  -4.564 -33.357  0.00  0.00    +0.000 C 
BRANCH  21  22
ATOM     22  O   UNL     1     -44.119  -4.884 -34.189  0.00  0.00    +0.000 OA
ATOM     23  H   UNL     1     -44.398  -5.554 -34.834  0.00  0.00    +0.000 HD
ENDBRANCH  21  22
BRANCH  21  24
ATOM     24  C   UNL     1     -45.518  -3.072 -33.436  0.00  0.00    +0.000 C 
BRANCH  24  25
ATOM     25  O   UNL     1     -46.826  -2.845 -32.998  0.00  0.00    +0.000 OA
ATOM     26  H   UNL     1     -47.030  -1.898 -33.063  0.00  0.00    +0.000 HD
ENDBRANCH  24  25
BRANCH  24  27
ATOM     27  C   UNL     1     -44.537  -2.241 -32.611  0.00  0.00    +0.000 C 
BRANCH  27  28
ATOM     28  O   UNL     1     -43.558  -3.058 -32.040  0.00  0.00    +0.000 OA
ATOM     29  H   UNL     1     -42.682  -2.780 -32.352  0.00  0.00    +0.000 HD
ENDBRANCH  27  28
BRANCH  27  30
ATOM     30  C   UNL     1     -45.277  -1.479 -31.526  0.00  0.00    +0.000 C 
BRANCH  30  31
ATOM     31  O   UNL     1     -45.747  -2.367 -30.559  0.00  0.00    +0.000 OA
ATOM     32  H   UNL     1     -46.716  -2.386 -30.582  0.00  0.00    +0.000 HD
ENDBRANCH  30  31
ENDBRANCH  27  30
ENDBRANCH  24  27
ENDBRANCH  21  24
ENDBRANCH  20  21
ENDBRANCH   9  20
TORSDOF 9
ENDMDL
MODEL 3
REMARK VINA RESULT:      -5.1      2.357      5.086
REMARK  Name = ZINC000003831424 ZINC03831424 PubChem-6328150
REMARK  9 active torsions:
REMARK  status: ('A' for Active; 'I' for Inactive)
REMARK    1  A    between atoms: N_9  and  C_20
REMARK    2  A    between atoms: C_20  and  C_21
REMARK    3  A    between atoms: C_21  and  O_22
REMARK    4  A    between atoms: C_21  and  C_24
REMARK    5  A    between atoms: C_24  and  O_25
REMARK    6  A    between atoms: C_24  and  C_27
REMARK    7  A    between atoms: C_27  and  O_28
REMARK    8  A    between atoms: C_27  and  C_30
REMARK    9  A    between atoms: C_30  and  O_31
REMARK                            x       y       z     vdW  Elec       q    Type
REMARK                         _______ _______ _______ _____ _____    ______ ____
ROOT
ATOM      1  C   UNL     1     -45.866 -12.156 -25.248  0.00  0.00    +0.000 C 
ATOM      2  C   UNL     1     -45.755 -13.552 -24.735  0.00  0.00    +0.000 A 
ATOM      3  C   UNL     1     -45.777 -13.762 -23.355  0.00  0.00    +0.000 A 
ATOM      4  C   UNL     1     -45.679 -15.053 -22.831  0.00  0.00    +0.000 A 
ATOM      5  C   UNL     1     -45.563 -16.171 -23.701  0.00  0.00    +0.000 A 
ATOM      6  C   UNL     1     -45.529 -15.940 -25.086  0.00  0.00    +0.000 A 
ATOM      7  C   UNL     1     -45.626 -14.647 -25.605  0.00  0.00    +0.000 A 
ATOM      8  C   UNL     1     -45.592 -14.468 -27.086  0.00  0.00    +0.000 C 
ATOM      9  N   UNL     1     -45.474 -17.444 -23.189  0.00  0.00    +0.000 N 
ATOM     10  C   UNL     1     -45.445 -17.626 -21.834  0.00  0.00    +0.000 A 
ATOM     11  N   UNL     1     -45.303 -18.859 -21.278  0.00  0.00    +0.000 NA
ATOM     12  C   UNL     1     -45.283 -19.020 -19.927  0.00  0.00    +0.000 A 
ATOM     13  O   UNL     1     -45.153 -20.173 -19.440  0.00  0.00    +0.000 OA
ATOM     14  N   UNL     1     -45.404 -17.947 -19.097  0.00  0.00    +0.000 N 
ATOM     15  C   UNL     1     -45.544 -16.679 -19.570  0.00  0.00    +0.000 A 
ATOM     16  O   UNL     1     -45.647 -15.719 -18.763  0.00  0.00    +0.000 OA
ATOM     17  C   UNL     1     -45.567 -16.460 -20.946  0.00  0.00    +0.000 A 
ATOM     18  N   UNL     1     -45.681 -15.224 -21.484  0.00  0.00    +0.000 NA
ATOM     19  H   UNL     1     -45.390 -18.093 -18.124  0.00  0.00    +0.000 HD
ENDROOT
BRANCH   9  20
ATOM     20  C   UNL     1     -45.382 -18.612 -24.077  0.00  0.00    +0.000 C 
BRANCH  20  21
ATOM     21  C   UNL     1     -43.939 -18.911 -24.508  0.00  0.00    +0.000 C 
BRANCH  21  22
ATOM     22  O   UNL     1     -43.310 -19.744 -23.580  0.00  0.00    +0.000 OA
ATOM     23  H   UNL     1     -43.982 -20.224 -23.070  0.00  0.00    +0.000 HD
ENDBRANCH  21  22
BRANCH  21  24
ATOM     24  C   UNL     1     -43.867 -19.509 -25.913  0.00  0.00    +0.000 C 
BRANCH  24  25
ATOM     25  O   UNL     1     -44.963 -19.080 -26.670  0.00  0.00    +0.000 OA
ATOM     26  H   UNL     1     -45.511 -19.845 -26.909  0.00  0.00    +0.000 HD
ENDBRANCH  24  25
BRANCH  24  27
ATOM     27  C   UNL     1     -42.565 -19.132 -26.617  0.00  0.00    +0.000 C 
BRANCH  27  28
ATOM     28  O   UNL     1     -41.466 -19.676 -25.946  0.00  0.00    +0.000 OA
ATOM     29  H   UNL     1     -41.612 -19.621 -24.989  0.00  0.00    +0.000 HD
ENDBRANCH  27  28
BRANCH  27  30
ATOM     30  C   UNL     1     -42.429 -17.622 -26.700  0.00  0.00    +0.000 C 
BRANCH  30  31
ATOM     31  O   UNL     1     -43.327 -17.115 -27.639  0.00  0.00    +0.000 OA
ATOM     32  H   UNL     1     -42.995 -16.271 -27.981  0.00  0.00    +0.000 HD
ENDBRANCH  30  31
ENDBRANCH  27  30
ENDBRANCH  24  27
ENDBRANCH  21  24
ENDBRANCH  20  21
ENDBRANCH   9  20
TORSDOF 9
ENDMDL
