MODEL 1
REMARK VINA RESULT:      -7.6      0.000      0.000
REMARK  Name = ZINC000002104886 ZINC02104886 PubChem-1759855
REMARK  3 active torsions:
REMARK  status: ('A' for Active; 'I' for Inactive)
REMARK    1  A    between atoms: C_12  and  C_20
REMARK    2  A    between atoms: N_27  and  C_31
REMARK    3  A    between atoms: C_36  and  O_37
REMARK                            x       y       z     vdW  Elec       q    Type
REMARK                         _______ _______ _______ _____ _____    ______ ____
ROOT
ATOM      1  C   UNL     1     -44.427 -12.474 -30.189  0.00  0.00    +0.000 C 
ATOM      2  C   UNL     1     -45.123 -12.869 -28.921  0.00  0.00    +0.000 A 
ATOM      3  C   UNL     1     -44.750 -14.037 -28.236  0.00  0.00    +0.000 A 
ATOM      4  C   UNL     1     -43.718 -14.863 -28.703  0.00  0.00    +0.000 A 
ATOM      5  C   UNL     1     -43.353 -16.009 -27.998  0.00  0.00    +0.000 A 
ATOM      6  C   UNL     1     -44.038 -16.357 -26.819  0.00  0.00    +0.000 A 
ATOM      7  C   UNL     1     -45.084 -15.542 -26.345  0.00  0.00    +0.000 A 
ATOM      8  C   UNL     1     -45.435 -14.377 -27.047  0.00  0.00    +0.000 A 
ATOM      9  O   UNL     1     -46.416 -13.600 -26.599  0.00  0.00    +0.000 OA
ATOM     10  C   UNL     1     -46.796 -12.486 -27.214  0.00  0.00    +0.000 A 
ATOM     11  O   UNL     1     -47.756 -11.823 -26.739  0.00  0.00    +0.000 OA
ATOM     12  C   UNL     1     -46.145 -12.060 -28.390  0.00  0.00    +0.000 A 
ATOM     13  C   UNL     1     -45.773 -15.882 -25.048  0.00  0.00    +0.000 C 
ATOM     14  C   UNL     1     -45.689 -17.376 -24.739  0.00  0.00    +0.000 C 
ATOM     15  C   UNL     1     -44.235 -17.828 -24.784  0.00  0.00    +0.000 C 
ATOM     16  N   UNL     1     -43.667 -17.548 -26.099  0.00  0.00    +0.000 N 
ATOM     17  C   UNL     1     -42.730 -18.504 -26.684  0.00  0.00    +0.000 C 
ATOM     18  C   UNL     1     -41.643 -17.761 -27.454  0.00  0.00    +0.000 C 
ATOM     19  C   UNL     1     -42.278 -16.904 -28.547  0.00  0.00    +0.000 C 
ENDROOT
BRANCH  12  20
ATOM     20  C   UNL     1     -46.577 -10.837 -29.101  0.00  0.00    +0.000 C 
ATOM     21  C   UNL     1     -46.204  -9.574 -28.826  0.00  0.00    +0.000 C 
ATOM     22  C   UNL     1     -46.841  -8.472 -29.571  0.00  0.00    +0.000 C 
ATOM     23  O   UNL     1     -47.642  -8.709 -30.515  0.00  0.00    +0.000 OA
ATOM     24  N   UNL     1     -46.562  -7.119 -29.216  0.00  0.00    +0.000 N 
ATOM     25  C   UNL     1     -45.678  -6.796 -28.143  0.00  0.00    +0.000 C 
ATOM     26  O   UNL     1     -45.522  -5.588 -27.820  0.00  0.00    +0.000 OA
ATOM     27  N   UNL     1     -44.984  -7.841 -27.433  0.00  0.00    +0.000 N 
ATOM     28  C   UNL     1     -45.157  -9.215 -27.834  0.00  0.00    +0.000 C 
ATOM     29  O   UNL     1     -44.374 -10.096 -27.387  0.00  0.00    +0.000 OA
ATOM     30  H   UNL     1     -46.991  -6.391 -29.722  0.00  0.00    +0.000 HD
BRANCH  27  31
ATOM     31  C   UNL     1     -44.080  -7.511 -26.361  0.00  0.00    +0.000 A 
ATOM     32  C   UNL     1     -42.751  -7.171 -26.653  0.00  0.00    +0.000 A 
ATOM     33  C   UNL     1     -41.856  -6.862 -25.626  0.00  0.00    +0.000 A 
ATOM     34  C   UNL     1     -42.282  -6.889 -24.298  0.00  0.00    +0.000 A 
ATOM     35  C   UNL     1     -43.604  -7.221 -23.996  0.00  0.00    +0.000 A 
ATOM     36  C   UNL     1     -44.514  -7.532 -25.021  0.00  0.00    +0.000 A 
BRANCH  36  37
ATOM     37  O   UNL     1     -45.846  -7.848 -24.729  0.00  0.00    +0.000 OA
ATOM     38  C   UNL     1     -46.246  -9.119 -24.233  0.00  0.00    +0.000 C 
ENDBRANCH  36  37
ENDBRANCH  27  31
ENDBRANCH  12  20
TORSDOF 3
ENDMDL
MODEL 2
REMARK VINA RESULT:      -7.2      4.035      9.158
REMARK  Name = ZINC000002104886 ZINC02104886 PubChem-1759855
REMARK  3 active torsions:
REMARK  status: ('A' for Active; 'I' for Inactive)
REMARK    1  A    between atoms: C_12  and  C_20
REMARK    2  A    between atoms: N_27  and  C_31
REMARK    3  A    between atoms: C_36  and  O_37
REMARK                            x       y       z     vdW  Elec       q    Type
REMARK                         _______ _______ _______ _____ _____    ______ ____
ROOT
ATOM      1  C   UNL     1     -47.274  -8.361 -32.109  0.00  0.00    +0.000 C 
ATOM      2  C   UNL     1     -45.818  -8.106 -31.859  0.00  0.00    +0.000 A 
ATOM      3  C   UNL     1     -45.254  -6.850 -32.143  0.00  0.00    +0.000 A 
ATOM      4  C   UNL     1     -46.027  -5.799 -32.657  0.00  0.00    +0.000 A 
ATOM      5  C   UNL     1     -45.450  -4.556 -32.915  0.00  0.00    +0.000 A 
ATOM      6  C   UNL     1     -44.077  -4.357 -32.682  0.00  0.00    +0.000 A 
ATOM      7  C   UNL     1     -43.287  -5.408 -32.177  0.00  0.00    +0.000 A 
ATOM      8  C   UNL     1     -43.876  -6.652 -31.899  0.00  0.00    +0.000 A 
ATOM      9  O   UNL     1     -43.137  -7.644 -31.414  0.00  0.00    +0.000 OA
ATOM     10  C   UNL     1     -43.632  -8.844 -31.128  0.00  0.00    +0.000 A 
ATOM     11  O   UNL     1     -42.855  -9.739 -30.700  0.00  0.00    +0.000 OA
ATOM     12  C   UNL     1     -45.002  -9.115 -31.315  0.00  0.00    +0.000 A 
ATOM     13  C   UNL     1     -41.830  -5.172 -31.869  0.00  0.00    +0.000 C 
ATOM     14  C   UNL     1     -41.250  -4.040 -32.714  0.00  0.00    +0.000 C 
ATOM     15  C   UNL     1     -42.108  -2.790 -32.558  0.00  0.00    +0.000 C 
ATOM     16  N   UNL     1     -43.481  -3.075 -32.962  0.00  0.00    +0.000 N 
ATOM     17  C   UNL     1     -44.237  -2.048 -33.673  0.00  0.00    +0.000 C 
ATOM     18  C   UNL     1     -45.697  -2.081 -33.236  0.00  0.00    +0.000 C 
ATOM     19  C   UNL     1     -46.289  -3.463 -33.513  0.00  0.00    +0.000 C 
ENDROOT
BRANCH  12  20
ATOM     20  C   UNL     1     -45.561 -10.455 -31.029  0.00  0.00    +0.000 C 
ATOM     21  C   UNL     1     -46.037 -10.891 -29.848  0.00  0.00    +0.000 C 
ATOM     22  C   UNL     1     -46.439 -12.304 -29.728  0.00  0.00    +0.000 C 
ATOM     23  O   UNL     1     -46.434 -13.065 -30.733  0.00  0.00    +0.000 OA
ATOM     24  N   UNL     1     -46.826 -12.828 -28.459  0.00  0.00    +0.000 N 
ATOM     25  C   UNL     1     -46.832 -12.015 -27.286  0.00  0.00    +0.000 C 
ATOM     26  O   UNL     1     -47.110 -12.542 -26.176  0.00  0.00    +0.000 OA
ATOM     27  N   UNL     1     -46.509 -10.613 -27.371  0.00  0.00    +0.000 N 
ATOM     28  C   UNL     1     -46.217 -10.024 -28.655  0.00  0.00    +0.000 C 
ATOM     29  O   UNL     1     -46.181  -8.768 -28.768  0.00  0.00    +0.000 OA
ATOM     30  H   UNL     1     -47.096 -13.773 -28.391  0.00  0.00    +0.000 HD
BRANCH  27  31
ATOM     31  C   UNL     1     -46.530  -9.791 -26.188  0.00  0.00    +0.000 A 
ATOM     32  C   UNL     1     -47.720  -9.153 -25.808  0.00  0.00    +0.000 A 
ATOM     33  C   UNL     1     -47.756  -8.341 -24.671  0.00  0.00    +0.000 A 
ATOM     34  C   UNL     1     -46.604  -8.161 -23.906  0.00  0.00    +0.000 A 
ATOM     35  C   UNL     1     -45.416  -8.796 -24.273  0.00  0.00    +0.000 A 
ATOM     36  C   UNL     1     -45.367  -9.617 -25.413  0.00  0.00    +0.000 A 
BRANCH  36  37
ATOM     37  O   UNL     1     -44.185 -10.271 -25.779  0.00  0.00    +0.000 OA
ATOM     38  C   UNL     1     -43.139  -9.629 -26.497  0.00  0.00    +0.000 C 
ENDBRANCH  36  37
ENDBRANCH  27  31
ENDBRANCH  12  20
TORSDOF 3
ENDMDL
MODEL 3
REMARK VINA RESULT:      -7.2      7.122     12.112
REMARK  Name = ZINC000002104886 ZINC02104886 PubChem-1759855
REMARK  3 active torsions:
REMARK  status: ('A' for Active; 'I' for Inactive)
REMARK    1  A    between atoms: C_12  and  C_20
REMARK    2  A    between atoms: N_27  and  C_31
REMARK    3  A    between atoms: C_36  and  O_37
REMARK                            x       y       z     vdW  Elec       q    Type
REMARK                         _______ _______ _______ _____ _____    ______ ____
ROOT
ATOM      1  C   UNL     1     -43.372  -0.477 -32.382  0.00  0.00    +0.000 C 
ATOM      2  C   UNL     1     -42.500  -1.611 -32.833  0.00  0.00    +0.000 A 
ATOM      3  C   UNL     1     -41.101  -1.491 -32.802  0.00  0.00    +0.000 A 
ATOM      4  C   UNL     1     -40.474  -0.322 -32.347  0.00  0.00    +0.000 A 
ATOM      5  C   UNL     1     -39.083  -0.232 -32.310  0.00  0.00    +0.000 A 
ATOM      6  C   UNL     1     -38.297  -1.311 -32.754  0.00  0.00    +0.000 A 
ATOM      7  C   UNL     1     -38.914  -2.486 -33.225  0.00  0.00    +0.000 A 
ATOM      8  C   UNL     1     -40.315  -2.581 -33.241  0.00  0.00    +0.000 A 
ATOM      9  O   UNL     1     -40.901  -3.691 -33.677  0.00  0.00    +0.000 OA
ATOM     10  C   UNL     1     -42.220  -3.846 -33.717  0.00  0.00    +0.000 A 
ATOM     11  O   UNL     1     -42.696  -4.920 -34.173  0.00  0.00    +0.000 OA
ATOM     12  C   UNL     1     -43.075  -2.818 -33.270  0.00  0.00    +0.000 A 
ATOM     13  C   UNL     1     -38.069  -3.663 -33.640  0.00  0.00    +0.000 C 
ATOM     14  C   UNL     1     -36.676  -3.228 -34.091  0.00  0.00    +0.000 C 
ATOM     15  C   UNL     1     -36.028  -2.376 -33.006  0.00  0.00    +0.000 C 
ATOM     16  N   UNL     1     -36.860  -1.210 -32.726  0.00  0.00    +0.000 N 
ATOM     17  C   UNL     1     -36.214   0.067 -32.437  0.00  0.00    +0.000 C 
ATOM     18  C   UNL     1     -37.008   0.822 -31.376  0.00  0.00    +0.000 C 
ATOM     19  C   UNL     1     -38.438   1.050 -31.865  0.00  0.00    +0.000 C 
ENDROOT
BRANCH  12  20
ATOM     20  C   UNL     1     -44.546  -2.965 -33.336  0.00  0.00    +0.000 C 
ATOM     21  C   UNL     1     -45.310  -3.753 -32.558  0.00  0.00    +0.000 C 
ATOM     22  C   UNL     1     -46.749  -3.859 -32.859  0.00  0.00    +0.000 C 
ATOM     23  O   UNL     1     -47.275  -3.152 -33.760  0.00  0.00    +0.000 OA
ATOM     24  N   UNL     1     -47.561  -4.782 -32.135  0.00  0.00    +0.000 N 
ATOM     25  C   UNL     1     -47.013  -5.619 -31.117  0.00  0.00    +0.000 C 
ATOM     26  O   UNL     1     -47.756  -6.470 -30.558  0.00  0.00    +0.000 OA
ATOM     27  N   UNL     1     -45.625  -5.501 -30.746  0.00  0.00    +0.000 N 
ATOM     28  C   UNL     1     -44.799  -4.504 -31.382  0.00  0.00    +0.000 C 
ATOM     29  O   UNL     1     -43.668  -4.231 -30.893  0.00  0.00    +0.000 OA
ATOM     30  H   UNL     1     -48.522  -4.842 -32.342  0.00  0.00    +0.000 HD
BRANCH  27  31
ATOM     31  C   UNL     1     -45.079  -6.337 -29.709  0.00  0.00    +0.000 A 
ATOM     32  C   UNL     1     -45.199  -5.946 -28.367  0.00  0.00    +0.000 A 
ATOM     33  C   UNL     1     -44.663  -6.736 -27.348  0.00  0.00    +0.000 A 
ATOM     34  C   UNL     1     -44.002  -7.924 -27.661  0.00  0.00    +0.000 A 
ATOM     35  C   UNL     1     -43.881  -8.326 -28.993  0.00  0.00    +0.000 A 
ATOM     36  C   UNL     1     -44.418  -7.540 -30.027  0.00  0.00    +0.000 A 
BRANCH  36  37
ATOM     37  O   UNL     1     -44.318  -7.942 -31.364  0.00  0.00    +0.000 OA
ATOM     38  C   UNL     1     -43.084  -7.968 -32.070  0.00  0.00    +0.000 C 
ENDBRANCH  36  37
ENDBRANCH  27  31
ENDBRANCH  12  20
TORSDOF 3
ENDMDL
