MODEL 1
REMARK VINA RESULT:      -6.8      0.000      0.000
REMARK  Name = ZINC000096181390
REMARK  4 active torsions:
REMARK  status: ('A' for Active; 'I' for Inactive)
REMARK    1  A    between atoms: C_5  and  C_6
REMARK    2  A    between atoms: C_6  and  N_20
REMARK    3  A    between atoms: C_7  and  C_8
REMARK    4  A    between atoms: C_12  and  C_13
REMARK                            x       y       z     vdW  Elec       q    Type
REMARK                         _______ _______ _______ _____ _____    ______ ____
ROOT
ATOM      1  C   UNL     1     -45.704  -5.732 -27.698  0.00  0.00    +0.000 C 
ATOM      2  C   UNL     1     -44.735  -6.920 -27.640  0.00  0.00    +0.000 C 
ATOM      3  C   UNL     1     -45.305  -7.767 -26.572  0.00  0.00    +0.000 C 
ATOM      4  C   UNL     1     -47.375  -7.961 -25.124  0.00  0.00    +0.000 C 
ATOM      5  C   UNL     1     -46.845  -6.006 -26.699  0.00  0.00    +0.000 C 
ATOM      6  N   UNL     1     -46.484  -7.232 -26.012  0.00  0.00    +0.000 N 
ATOM      7  O   UNL     1     -44.802  -8.862 -26.207  0.00  0.00    +0.000 OA
ENDROOT
BRANCH   5   8
ATOM      8  C   UNL     1     -46.998  -4.871 -25.734  0.00  0.00    +0.000 A 
ATOM      9  C   UNL     1     -47.249  -3.587 -26.227  0.00  0.00    +0.000 A 
ATOM     10  C   UNL     1     -47.395  -2.511 -25.347  0.00  0.00    +0.000 A 
ATOM     11  C   UNL     1     -47.289  -2.717 -23.968  0.00  0.00    +0.000 A 
ATOM     12  C   UNL     1     -47.445  -1.573 -23.032  0.00  0.00    +0.000 C 
ATOM     13  C   UNL     1     -47.038  -3.997 -23.469  0.00  0.00    +0.000 A 
ATOM     14  C   UNL     1     -46.892  -5.074 -24.348  0.00  0.00    +0.000 A 
ENDBRANCH   5   8
BRANCH   1  15
ATOM     15  C   UNL     1     -46.245  -5.558 -29.079  0.00  0.00    +0.000 C 
ATOM     16  N   UNL     1     -45.530  -4.773 -30.036  0.00  0.00    +0.000 NA
ATOM     17  O   UNL     1     -47.334  -6.108 -29.389  0.00  0.00    +0.000 OA
BRANCH  16  18
ATOM     18  C   UNL     1     -46.016  -4.581 -31.393  0.00  0.00    +0.000 C 
BRANCH  18  23
ATOM     19  C   UNL     1     -42.502  -1.262 -32.247  0.00  0.00    +0.000 C 
ATOM     20  C   UNL     1     -43.770  -2.025 -32.392  0.00  0.00    +0.000 A 
ATOM     21  C   UNL     1     -44.740  -1.779 -33.343  0.00  0.00    +0.000 A 
ATOM     22  C   UNL     1     -45.731  -2.718 -33.105  0.00  0.00    +0.000 A 
ATOM     23  C   UNL     1     -45.277  -3.459 -32.031  0.00  0.00    +0.000 A 
ATOM     24  O   UNL     1     -44.112  -3.027 -31.622  0.00  0.00    +0.000 OA
ENDBRANCH  18  23
ENDBRANCH  16  18
ENDBRANCH   1  15
TORSDOF 4
ENDMDL
MODEL 2
REMARK VINA RESULT:      -6.6     10.598     14.448
REMARK  Name = ZINC000096181390
REMARK  4 active torsions:
REMARK  status: ('A' for Active; 'I' for Inactive)
REMARK    1  A    between atoms: C_5  and  C_6
REMARK    2  A    between atoms: C_6  and  N_20
REMARK    3  A    between atoms: C_7  and  C_8
REMARK    4  A    between atoms: C_12  and  C_13
REMARK                            x       y       z     vdW  Elec       q    Type
REMARK                         _______ _______ _______ _____ _____    ______ ____
ROOT
ATOM      1  C   UNL     1     -44.405 -19.381 -25.670  0.00  0.00    +0.000 C 
ATOM      2  C   UNL     1     -44.246 -20.400 -24.533  0.00  0.00    +0.000 C 
ATOM      3  C   UNL     1     -42.797 -20.364 -24.250  0.00  0.00    +0.000 C 
ATOM      4  C   UNL     1     -40.719 -19.038 -24.841  0.00  0.00    +0.000 C 
ATOM      5  C   UNL     1     -43.026 -18.744 -25.926  0.00  0.00    +0.000 C 
ATOM      6  N   UNL     1     -42.096 -19.449 -25.064  0.00  0.00    +0.000 N 
ATOM      7  O   UNL     1     -42.241 -21.064 -23.364  0.00  0.00    +0.000 OA
ENDROOT
BRANCH   5   8
ATOM      8  C   UNL     1     -42.633 -18.874 -27.366  0.00  0.00    +0.000 A 
ATOM      9  C   UNL     1     -42.720 -20.125 -27.985  0.00  0.00    +0.000 A 
ATOM     10  C   UNL     1     -42.359 -20.272 -29.328  0.00  0.00    +0.000 A 
ATOM     11  C   UNL     1     -41.908 -19.167 -30.055  0.00  0.00    +0.000 A 
ATOM     12  C   UNL     1     -41.524 -19.323 -31.482  0.00  0.00    +0.000 C 
ATOM     13  C   UNL     1     -41.818 -17.915 -29.442  0.00  0.00    +0.000 A 
ATOM     14  C   UNL     1     -42.180 -17.766 -28.100  0.00  0.00    +0.000 A 
ENDBRANCH   5   8
BRANCH   1  15
ATOM     15  C   UNL     1     -45.408 -18.337 -25.307  0.00  0.00    +0.000 C 
ATOM     16  N   UNL     1     -45.010 -16.969 -25.187  0.00  0.00    +0.000 NA
ATOM     17  O   UNL     1     -46.605 -18.674 -25.109  0.00  0.00    +0.000 OA
BRANCH  16  18
ATOM     18  C   UNL     1     -45.953 -15.919 -24.841  0.00  0.00    +0.000 C 
BRANCH  18  23
ATOM     19  C   UNL     1     -46.909 -11.704 -27.165  0.00  0.00    +0.000 C 
ATOM     20  C   UNL     1     -46.321 -13.037 -26.874  0.00  0.00    +0.000 A 
ATOM     21  C   UNL     1     -45.430 -13.706 -27.690  0.00  0.00    +0.000 A 
ATOM     22  C   UNL     1     -45.156 -14.896 -27.032  0.00  0.00    +0.000 A 
ATOM     23  C   UNL     1     -45.902 -14.846 -25.870  0.00  0.00    +0.000 A 
ATOM     24  O   UNL     1     -46.588 -13.735 -25.800  0.00  0.00    +0.000 OA
ENDBRANCH  18  23
ENDBRANCH  16  18
ENDBRANCH   1  15
TORSDOF 4
ENDMDL
MODEL 3
REMARK VINA RESULT:      -6.6      9.446     14.353
REMARK  Name = ZINC000096181390
REMARK  4 active torsions:
REMARK  status: ('A' for Active; 'I' for Inactive)
REMARK    1  A    between atoms: C_5  and  C_6
REMARK    2  A    between atoms: C_6  and  N_20
REMARK    3  A    between atoms: C_7  and  C_8
REMARK    4  A    between atoms: C_12  and  C_13
REMARK                            x       y       z     vdW  Elec       q    Type
REMARK                         _______ _______ _______ _____ _____    ______ ____
ROOT
ATOM      1  C   UNL     1     -46.049 -16.309 -24.947  0.00  0.00    +0.000 C 
ATOM      2  C   UNL     1     -46.019 -17.836 -25.095  0.00  0.00    +0.000 C 
ATOM      3  C   UNL     1     -44.895 -18.062 -26.025  0.00  0.00    +0.000 C 
ATOM      4  C   UNL     1     -42.993 -16.810 -27.139  0.00  0.00    +0.000 C 
ATOM      5  C   UNL     1     -44.866 -15.736 -25.750  0.00  0.00    +0.000 C 
ATOM      6  N   UNL     1     -44.260 -16.868 -26.427  0.00  0.00    +0.000 N 
ATOM      7  O   UNL     1     -44.527 -19.202 -26.412  0.00  0.00    +0.000 OA
ENDROOT
BRANCH   5   8
ATOM      8  C   UNL     1     -45.333 -14.706 -26.733  0.00  0.00    +0.000 A 
ATOM      9  C   UNL     1     -44.885 -14.774 -28.056  0.00  0.00    +0.000 A 
ATOM     10  C   UNL     1     -45.306 -13.824 -28.991  0.00  0.00    +0.000 A 
ATOM     11  C   UNL     1     -46.177 -12.801 -28.605  0.00  0.00    +0.000 A 
ATOM     12  C   UNL     1     -46.625 -11.791 -29.599  0.00  0.00    +0.000 C 
ATOM     13  C   UNL     1     -46.629 -12.728 -27.285  0.00  0.00    +0.000 A 
ATOM     14  C   UNL     1     -46.208 -13.677 -26.349  0.00  0.00    +0.000 A 
ENDBRANCH   5   8
BRANCH   1  15
ATOM     15  C   UNL     1     -45.948 -15.915 -23.510  0.00  0.00    +0.000 C 
ATOM     16  N   UNL     1     -45.291 -16.773 -22.574  0.00  0.00    +0.000 NA
ATOM     17  O   UNL     1     -46.448 -14.822 -23.134  0.00  0.00    +0.000 OA
BRANCH  16  18
ATOM     18  C   UNL     1     -45.166 -16.427 -21.168  0.00  0.00    +0.000 C 
BRANCH  18  23
ATOM     19  C   UNL     1     -43.809 -20.075 -18.178  0.00  0.00    +0.000 C 
ATOM     20  C   UNL     1     -44.658 -19.237 -19.066  0.00  0.00    +0.000 A 
ATOM     21  C   UNL     1     -45.971 -19.508 -19.394  0.00  0.00    +0.000 A 
ATOM     22  C   UNL     1     -46.357 -18.475 -20.236  0.00  0.00    +0.000 A 
ATOM     23  C   UNL     1     -45.245 -17.662 -20.344  0.00  0.00    +0.000 A 
ATOM     24  O   UNL     1     -44.247 -18.137 -19.643  0.00  0.00    +0.000 OA
ENDBRANCH  18  23
ENDBRANCH  16  18
ENDBRANCH   1  15
TORSDOF 4
ENDMDL
