MODEL 1
REMARK VINA RESULT:      -7.6      0.000      0.000
REMARK  Name = ZINC000021907259
REMARK  4 active torsions:
REMARK  status: ('A' for Active; 'I' for Inactive)
REMARK    1  A    between atoms: C_2  and  C_5
REMARK    2  A    between atoms: N_3  and  C_17
REMARK    3  A    between atoms: N_21  and  C_22
REMARK    4  A    between atoms: C_22  and  C_23
REMARK                            x       y       z     vdW  Elec       q    Type
REMARK                         _______ _______ _______ _____ _____    ______ ____
ROOT
ATOM      1  O   UNL     1     -47.756  -4.429 -29.265  0.00  0.00    +0.000 OA
ATOM      2  C   UNL     1     -46.923  -5.225 -28.754  0.00  0.00    +0.000 C 
ATOM      3  N   UNL     1     -46.061  -5.998 -29.601  0.00  0.00    +0.000 N 
ATOM      4  H   UNL     1     -45.445  -6.628 -29.161  0.00  0.00    +0.000 HD
ENDROOT
BRANCH   2   5
ATOM      5  C   UNL     1     -46.820  -5.374 -27.278  0.00  0.00    +0.000 A 
ATOM      6  C   UNL     1     -46.498  -6.640 -26.770  0.00  0.00    +0.000 A 
ATOM      7  C   UNL     1     -46.384  -6.846 -25.397  0.00  0.00    +0.000 A 
ATOM      8  O   UNL     1     -46.095  -7.989 -24.957  0.00  0.00    +0.000 OA
ATOM      9  N   UNL     1     -46.583  -5.818 -24.534  0.00  0.00    +0.000 N 
ATOM     10  C   UNL     1     -46.898  -4.572 -24.971  0.00  0.00    +0.000 A 
ATOM     11  C   UNL     1     -47.097  -3.547 -24.042  0.00  0.00    +0.000 A 
ATOM     12  C   UNL     1     -47.426  -2.261 -24.474  0.00  0.00    +0.000 A 
ATOM     13  C   UNL     1     -47.559  -1.994 -25.839  0.00  0.00    +0.000 A 
ATOM     14  C   UNL     1     -47.361  -3.013 -26.773  0.00  0.00    +0.000 A 
ATOM     15  C   UNL     1     -47.027  -4.313 -26.360  0.00  0.00    +0.000 A 
ATOM     16  H   UNL     1     -46.498  -5.980 -23.567  0.00  0.00    +0.000 HD
ENDBRANCH   2   5
BRANCH   3  17
ATOM     17  C   UNL     1     -46.016  -5.934 -31.032  0.00  0.00    +0.000 A 
ATOM     18  C   UNL     1     -46.907  -6.519 -31.912  0.00  0.00    +0.000 A 
ATOM     19  C   UNL     1     -46.421  -6.144 -33.160  0.00  0.00    +0.000 A 
ATOM     20  N   UNL     1     -45.314  -5.386 -33.010  0.00  0.00    +0.000 NA
ATOM     21  N   UNL     1     -45.081  -5.261 -31.717  0.00  0.00    +0.000 N 
BRANCH  21  22
ATOM     22  C   UNL     1     -43.946  -4.536 -31.161  0.00  0.00    +0.000 C 
BRANCH  22  23
ATOM     23  C   UNL     1     -43.991  -3.099 -31.578  0.00  0.00    +0.000 A 
ATOM     24  C   UNL     1     -45.076  -2.309 -31.177  0.00  0.00    +0.000 A 
ATOM     25  C   UNL     1     -45.152  -0.968 -31.561  0.00  0.00    +0.000 A 
ATOM     26  C   UNL     1     -44.142  -0.409 -32.348  0.00  0.00    +0.000 A 
ATOM     27  C   UNL     1     -43.055  -1.190 -32.749  0.00  0.00    +0.000 A 
ATOM     28  C   UNL     1     -42.973  -2.533 -32.368  0.00  0.00    +0.000 A 
ATOM     29 CL   UNL     1     -41.576  -3.465 -32.880  0.00  0.00    +0.000 Cl
ENDBRANCH  22  23
ENDBRANCH  21  22
ENDBRANCH   3  17
TORSDOF 4
ENDMDL
MODEL 2
REMARK VINA RESULT:      -6.9      1.287      1.699
REMARK  Name = ZINC000021907259
REMARK  4 active torsions:
REMARK  status: ('A' for Active; 'I' for Inactive)
REMARK    1  A    between atoms: C_2  and  C_5
REMARK    2  A    between atoms: N_3  and  C_17
REMARK    3  A    between atoms: N_21  and  C_22
REMARK    4  A    between atoms: C_22  and  C_23
REMARK                            x       y       z     vdW  Elec       q    Type
REMARK                         _______ _______ _______ _____ _____    ______ ____
ROOT
ATOM      1  O   UNL     1     -47.755  -5.334 -29.589  0.00  0.00    +0.000 OA
ATOM      2  C   UNL     1     -46.660  -5.923 -29.381  0.00  0.00    +0.000 C 
ATOM      3  N   UNL     1     -45.715  -6.074 -30.451  0.00  0.00    +0.000 N 
ATOM      4  H   UNL     1     -44.886  -6.565 -30.252  0.00  0.00    +0.000 HD
ENDROOT
BRANCH   2   5
ATOM      5  C   UNL     1     -46.332  -6.466 -28.036  0.00  0.00    +0.000 A 
ATOM      6  C   UNL     1     -45.741  -7.736 -27.971  0.00  0.00    +0.000 A 
ATOM      7  C   UNL     1     -45.408  -8.301 -26.743  0.00  0.00    +0.000 A 
ATOM      8  O   UNL     1     -44.878  -9.442 -26.701  0.00  0.00    +0.000 OA
ATOM      9  N   UNL     1     -45.652  -7.625 -25.592  0.00  0.00    +0.000 N 
ATOM     10  C   UNL     1     -46.223  -6.393 -25.596  0.00  0.00    +0.000 A 
ATOM     11  C   UNL     1     -46.457  -5.738 -24.384  0.00  0.00    +0.000 A 
ATOM     12  C   UNL     1     -47.048  -4.474 -24.371  0.00  0.00    +0.000 A 
ATOM     13  C   UNL     1     -47.409  -3.858 -25.572  0.00  0.00    +0.000 A 
ATOM     14  C   UNL     1     -47.178  -4.506 -26.787  0.00  0.00    +0.000 A 
ATOM     15  C   UNL     1     -46.582  -5.777 -26.823  0.00  0.00    +0.000 A 
ATOM     16  H   UNL     1     -45.409  -8.038 -24.732  0.00  0.00    +0.000 HD
ENDBRANCH   2   5
BRANCH   3  17
ATOM     17  C   UNL     1     -45.872  -5.571 -31.783  0.00  0.00    +0.000 A 
ATOM     18  C   UNL     1     -46.254  -6.293 -32.898  0.00  0.00    +0.000 A 
ATOM     19  C   UNL     1     -46.262  -5.342 -33.912  0.00  0.00    +0.000 A 
ATOM     20  N   UNL     1     -45.906  -4.140 -33.413  0.00  0.00    +0.000 NA
ATOM     21  N   UNL     1     -45.677  -4.289 -32.121  0.00  0.00    +0.000 N 
BRANCH  21  22
ATOM     22  C   UNL     1     -45.235  -3.213 -31.244  0.00  0.00    +0.000 C 
BRANCH  22  23
ATOM     23  C   UNL     1     -44.168  -2.402 -31.909  0.00  0.00    +0.000 A 
ATOM     24  C   UNL     1     -44.490  -1.135 -32.411  0.00  0.00    +0.000 A 
ATOM     25  C   UNL     1     -43.519  -0.360 -33.049  0.00  0.00    +0.000 A 
ATOM     26  C   UNL     1     -42.218  -0.848 -33.188  0.00  0.00    +0.000 A 
ATOM     27  C   UNL     1     -41.888  -2.110 -32.688  0.00  0.00    +0.000 A 
ATOM     28  C   UNL     1     -42.855  -2.891 -32.049  0.00  0.00    +0.000 A 
ATOM     29 CL   UNL     1     -42.383  -4.461 -31.419  0.00  0.00    +0.000 Cl
ENDBRANCH  22  23
ENDBRANCH  21  22
ENDBRANCH   3  17
TORSDOF 4
ENDMDL
MODEL 3
REMARK VINA RESULT:      -6.9      2.850      7.128
REMARK  Name = ZINC000021907259
REMARK  4 active torsions:
REMARK  status: ('A' for Active; 'I' for Inactive)
REMARK    1  A    between atoms: C_2  and  C_5
REMARK    2  A    between atoms: N_3  and  C_17
REMARK    3  A    between atoms: N_21  and  C_22
REMARK    4  A    between atoms: C_22  and  C_23
REMARK                            x       y       z     vdW  Elec       q    Type
REMARK                         _______ _______ _______ _____ _____    ______ ____
ROOT
ATOM      1  O   UNL     1     -46.293  -5.608 -32.430  0.00  0.00    +0.000 OA
ATOM      2  C   UNL     1     -45.050  -5.534 -32.231  0.00  0.00    +0.000 C 
ATOM      3  N   UNL     1     -44.417  -6.440 -31.316  0.00  0.00    +0.000 N 
ATOM      4  H   UNL     1     -43.450  -6.328 -31.169  0.00  0.00    +0.000 HD
ENDROOT
BRANCH   2   5
ATOM      5  C   UNL     1     -44.226  -4.516 -32.937  0.00  0.00    +0.000 A 
ATOM      6  C   UNL     1     -43.364  -4.962 -33.949  0.00  0.00    +0.000 A 
ATOM      7  C   UNL     1     -42.567  -4.060 -34.649  0.00  0.00    +0.000 A 
ATOM      8  O   UNL     1     -41.797  -4.475 -35.555  0.00  0.00    +0.000 OA
ATOM      9  N   UNL     1     -42.618  -2.735 -34.359  0.00  0.00    +0.000 N 
ATOM     10  C   UNL     1     -43.434  -2.250 -33.389  0.00  0.00    +0.000 A 
ATOM     11  C   UNL     1     -43.449  -0.877 -33.125  0.00  0.00    +0.000 A 
ATOM     12  C   UNL     1     -44.279  -0.362 -32.127  0.00  0.00    +0.000 A 
ATOM     13  C   UNL     1     -45.097  -1.219 -31.387  0.00  0.00    +0.000 A 
ATOM     14  C   UNL     1     -45.089  -2.591 -31.646  0.00  0.00    +0.000 A 
ATOM     15  C   UNL     1     -44.264  -3.129 -32.646  0.00  0.00    +0.000 A 
ATOM     16  H   UNL     1     -42.050  -2.111 -34.864  0.00  0.00    +0.000 HD
ENDBRANCH   2   5
BRANCH   3  17
ATOM     17  C   UNL     1     -45.069  -7.494 -30.596  0.00  0.00    +0.000 A 
ATOM     18  C   UNL     1     -45.844  -8.503 -31.135  0.00  0.00    +0.000 A 
ATOM     19  C   UNL     1     -46.218  -9.251 -30.024  0.00  0.00    +0.000 A 
ATOM     20  N   UNL     1     -45.689  -8.706 -28.908  0.00  0.00    +0.000 NA
ATOM     21  N   UNL     1     -44.991  -7.645 -29.267  0.00  0.00    +0.000 N 
BRANCH  21  22
ATOM     22  C   UNL     1     -44.298  -6.772 -28.329  0.00  0.00    +0.000 C 
BRANCH  22  23
ATOM     23  C   UNL     1     -45.216  -6.365 -27.220  0.00  0.00    +0.000 A 
ATOM     24  C   UNL     1     -45.049  -6.939 -25.953  0.00  0.00    +0.000 A 
ATOM     25  C   UNL     1     -45.899  -6.588 -24.902  0.00  0.00    +0.000 A 
ATOM     26  C   UNL     1     -46.921  -5.660 -25.110  0.00  0.00    +0.000 A 
ATOM     27  C   UNL     1     -47.093  -5.081 -26.370  0.00  0.00    +0.000 A 
ATOM     28  C   UNL     1     -46.246  -5.428 -27.427  0.00  0.00    +0.000 A 
ATOM     29 CL   UNL     1     -46.491  -4.654 -28.985  0.00  0.00    +0.000 Cl
ENDBRANCH  22  23
ENDBRANCH  21  22
ENDBRANCH   3  17
TORSDOF 4
ENDMDL
