MODEL 1
REMARK VINA RESULT:      -6.8      0.000      0.000
REMARK  Name = ZINC000031810633
REMARK  1 active torsions:
REMARK  status: ('A' for Active; 'I' for Inactive)
REMARK    1  A    between atoms: C_7  and  C_24
REMARK                            x       y       z     vdW  Elec       q    Type
REMARK                         _______ _______ _______ _____ _____    ______ ____
ROOT
ATOM      1  C   UNL     1     -45.758  -6.710 -34.989  0.00  0.00    +0.000 C 
ATOM      2  C   UNL     1     -45.636  -7.260 -33.612  0.00  0.00    +0.000 A 
ATOM      3  N   UNL     1     -45.190  -8.500 -33.346  0.00  0.00    +0.000 NA
ATOM      4  N   UNL     1     -45.211  -8.661 -32.033  0.00  0.00    +0.000 N 
ATOM      5  C   UNL     1     -45.637  -7.523 -31.439  0.00  0.00    +0.000 A 
ATOM      6  C   UNL     1     -45.940  -6.596 -32.435  0.00  0.00    +0.000 A 
ATOM      7  C   UNL     1     -46.433  -5.177 -32.360  0.00  0.00    +0.000 C 
ATOM      8  S   UNL     1     -47.462  -4.772 -30.916  0.00  0.00    +0.000 S 
ATOM      9  C   UNL     1     -46.053  -4.846 -29.787  0.00  0.00    +0.000 C 
ATOM     10  C   UNL     1     -45.943  -6.209 -29.211  0.00  0.00    +0.000 C 
ATOM     11  O   UNL     1     -46.048  -6.341 -27.965  0.00  0.00    +0.000 OA
ATOM     12  N   UNL     1     -45.688  -7.368 -30.010  0.00  0.00    +0.000 N 
ATOM     13  H   UNL     1     -45.521  -8.193 -29.500  0.00  0.00    +0.000 HD
ATOM     14  C   UNL     1     -44.765  -9.867 -31.395  0.00  0.00    +0.000 A 
ATOM     15  N   UNL     1     -43.694 -10.552 -31.899  0.00  0.00    +0.000 NA
ATOM     16  C   UNL     1     -43.260 -11.723 -31.331  0.00  0.00    +0.000 A 
ATOM     17  N   UNL     1     -43.903 -12.247 -30.245  0.00  0.00    +0.000 NA
ATOM     18  C   UNL     1     -44.973 -11.576 -29.754  0.00  0.00    +0.000 A 
ATOM     19  N   UNL     1     -45.758 -11.961 -28.740  0.00  0.00    +0.000 N 
ATOM     20  C   UNL     1     -46.698 -10.977 -28.708  0.00  0.00    +0.000 A 
ATOM     21  N   UNL     1     -46.524 -10.017 -29.657  0.00  0.00    +0.000 NA
ATOM     22  C   UNL     1     -45.417 -10.422 -30.294  0.00  0.00    +0.000 A 
ATOM     23  H   UNL     1     -45.676 -12.754 -28.162  0.00  0.00    +0.000 HD
ENDROOT
BRANCH   7  24
ATOM     24  C   UNL     1     -45.431  -4.114 -32.728  0.00  0.00    +0.000 A 
ATOM     25  C   UNL     1     -44.085  -4.355 -32.426  0.00  0.00    +0.000 A 
ATOM     26  C   UNL     1     -43.106  -3.411 -32.745  0.00  0.00    +0.000 A 
ATOM     27  C   UNL     1     -43.466  -2.216 -33.371  0.00  0.00    +0.000 A 
ATOM     28  F   UNL     1     -42.516  -1.301 -33.681  0.00  0.00    +0.000 F 
ATOM     29  C   UNL     1     -44.805  -1.965 -33.680  0.00  0.00    +0.000 A 
ATOM     30  C   UNL     1     -45.789  -2.905 -33.363  0.00  0.00    +0.000 A 
ATOM     31  F   UNL     1     -47.079  -2.630 -33.678  0.00  0.00    +0.000 F 
ENDBRANCH   7  24
TORSDOF 1
ENDMDL
MODEL 2
REMARK VINA RESULT:      -6.7      4.241      7.364
REMARK  Name = ZINC000031810633
REMARK  1 active torsions:
REMARK  status: ('A' for Active; 'I' for Inactive)
REMARK    1  A    between atoms: C_7  and  C_24
REMARK                            x       y       z     vdW  Elec       q    Type
REMARK                         _______ _______ _______ _____ _____    ______ ____
ROOT
ATOM      1  C   UNL     1     -42.683  -6.849 -27.402  0.00  0.00    +0.000 C 
ATOM      2  C   UNL     1     -43.102  -6.178 -28.662  0.00  0.00    +0.000 A 
ATOM      3  N   UNL     1     -42.241  -5.802 -29.624  0.00  0.00    +0.000 NA
ATOM      4  N   UNL     1     -42.943  -5.239 -30.594  0.00  0.00    +0.000 N 
ATOM      5  C   UNL     1     -44.260  -5.275 -30.286  0.00  0.00    +0.000 A 
ATOM      6  C   UNL     1     -44.400  -5.862 -29.029  0.00  0.00    +0.000 A 
ATOM      7  C   UNL     1     -45.618  -6.171 -28.203  0.00  0.00    +0.000 C 
ATOM      8  S   UNL     1     -47.039  -5.060 -28.440  0.00  0.00    +0.000 S 
ATOM      9  C   UNL     1     -47.393  -5.729 -30.080  0.00  0.00    +0.000 C 
ATOM     10  C   UNL     1     -46.704  -4.917 -31.113  0.00  0.00    +0.000 C 
ATOM     11  O   UNL     1     -47.403  -4.327 -31.976  0.00  0.00    +0.000 OA
ATOM     12  N   UNL     1     -45.279  -4.809 -31.187  0.00  0.00    +0.000 N 
ATOM     13  H   UNL     1     -44.941  -4.339 -31.983  0.00  0.00    +0.000 HD
ATOM     14  C   UNL     1     -42.340  -4.749 -31.800  0.00  0.00    +0.000 A 
ATOM     15  N   UNL     1     -41.286  -5.418 -32.359  0.00  0.00    +0.000 NA
ATOM     16  C   UNL     1     -40.669  -4.961 -33.495  0.00  0.00    +0.000 A 
ATOM     17  N   UNL     1     -41.085  -3.806 -34.095  0.00  0.00    +0.000 NA
ATOM     18  C   UNL     1     -42.119  -3.135 -33.534  0.00  0.00    +0.000 A 
ATOM     19  N   UNL     1     -42.625  -1.965 -33.941  0.00  0.00    +0.000 N 
ATOM     20  C   UNL     1     -43.582  -1.717 -33.006  0.00  0.00    +0.000 A 
ATOM     21  N   UNL     1     -43.677  -2.678 -32.046  0.00  0.00    +0.000 NA
ATOM     22  C   UNL     1     -42.744  -3.566 -32.418  0.00  0.00    +0.000 A 
ATOM     23  H   UNL     1     -42.371  -1.421 -34.722  0.00  0.00    +0.000 HD
ENDROOT
BRANCH   7  24
ATOM     24  C   UNL     1     -45.982  -7.629 -28.090  0.00  0.00    +0.000 A 
ATOM     25  C   UNL     1     -45.630  -8.472 -29.151  0.00  0.00    +0.000 A 
ATOM     26  C   UNL     1     -45.934  -9.834 -29.107  0.00  0.00    +0.000 A 
ATOM     27  C   UNL     1     -46.592 -10.367 -27.996  0.00  0.00    +0.000 A 
ATOM     28  F   UNL     1     -46.886 -11.688 -27.952  0.00  0.00    +0.000 F 
ATOM     29  C   UNL     1     -46.945  -9.537 -26.929  0.00  0.00    +0.000 A 
ATOM     30  C   UNL     1     -46.644  -8.172 -26.968  0.00  0.00    +0.000 A 
ATOM     31  F   UNL     1     -47.000  -7.396 -25.916  0.00  0.00    +0.000 F 
ENDBRANCH   7  24
TORSDOF 1
ENDMDL
MODEL 3
REMARK VINA RESULT:      -6.6      2.434      3.894
REMARK  Name = ZINC000031810633
REMARK  1 active torsions:
REMARK  status: ('A' for Active; 'I' for Inactive)
REMARK    1  A    between atoms: C_7  and  C_24
REMARK                            x       y       z     vdW  Elec       q    Type
REMARK                         _______ _______ _______ _____ _____    ______ ____
ROOT
ATOM      1  C   UNL     1     -42.412  -6.093 -28.748  0.00  0.00    +0.000 C 
ATOM      2  C   UNL     1     -43.551  -7.015 -29.011  0.00  0.00    +0.000 A 
ATOM      3  N   UNL     1     -44.077  -7.828 -28.079  0.00  0.00    +0.000 NA
ATOM      4  N   UNL     1     -45.063  -8.503 -28.645  0.00  0.00    +0.000 N 
ATOM      5  C   UNL     1     -45.205  -8.113 -29.933  0.00  0.00    +0.000 A 
ATOM      6  C   UNL     1     -44.227  -7.159 -30.212  0.00  0.00    +0.000 A 
ATOM      7  C   UNL     1     -43.923  -6.377 -31.460  0.00  0.00    +0.000 C 
ATOM      8  S   UNL     1     -44.337  -7.199 -33.029  0.00  0.00    +0.000 S 
ATOM      9  C   UNL     1     -46.112  -6.999 -32.762  0.00  0.00    +0.000 C 
ATOM     10  C   UNL     1     -46.658  -8.205 -32.092  0.00  0.00    +0.000 C 
ATOM     11  O   UNL     1     -47.538  -8.875 -32.691  0.00  0.00    +0.000 OA
ATOM     12  N   UNL     1     -46.250  -8.614 -30.783  0.00  0.00    +0.000 N 
ATOM     13  H   UNL     1     -46.768  -9.360 -30.404  0.00  0.00    +0.000 HD
ATOM     14  C   UNL     1     -45.870  -9.445 -27.923  0.00  0.00    +0.000 A 
ATOM     15  N   UNL     1     -46.204  -9.201 -26.619  0.00  0.00    +0.000 NA
ATOM     16  C   UNL     1     -46.950 -10.093 -25.892  0.00  0.00    +0.000 A 
ATOM     17  N   UNL     1     -47.369 -11.267 -26.452  0.00  0.00    +0.000 NA
ATOM     18  C   UNL     1     -47.026 -11.516 -27.739  0.00  0.00    +0.000 A 
ATOM     19  N   UNL     1     -47.293 -12.628 -28.434  0.00  0.00    +0.000 N 
ATOM     20  C   UNL     1     -46.678 -12.385 -29.624  0.00  0.00    +0.000 A 
ATOM     21  N   UNL     1     -46.045 -11.181 -29.682  0.00  0.00    +0.000 NA
ATOM     22  C   UNL     1     -46.295 -10.653 -28.476  0.00  0.00    +0.000 A 
ATOM     23  H   UNL     1     -47.806 -13.421 -28.156  0.00  0.00    +0.000 HD
ENDROOT
BRANCH   7  24
ATOM     24  C   UNL     1     -44.268  -4.911 -31.417  0.00  0.00    +0.000 A 
ATOM     25  C   UNL     1     -45.452  -4.540 -30.767  0.00  0.00    +0.000 A 
ATOM     26  C   UNL     1     -45.827  -3.197 -30.688  0.00  0.00    +0.000 A 
ATOM     27  C   UNL     1     -45.017  -2.212 -31.257  0.00  0.00    +0.000 A 
ATOM     28  F   UNL     1     -45.381  -0.909 -31.180  0.00  0.00    +0.000 F 
ATOM     29  C   UNL     1     -43.833  -2.569 -31.906  0.00  0.00    +0.000 A 
ATOM     30  C   UNL     1     -43.453  -3.912 -31.989  0.00  0.00    +0.000 A 
ATOM     31  F   UNL     1     -42.297  -4.223 -32.624  0.00  0.00    +0.000 F 
ENDBRANCH   7  24
TORSDOF 1
ENDMDL
