MODEL 1
REMARK VINA RESULT:      -5.5      0.000      0.000
REMARK  Name = ZINC000011845161 MCULE-6424288385 MolPort-005-300-936
REMARK  9 active torsions:
REMARK  status: ('A' for Active; 'I' for Inactive)
REMARK    1  A    between atoms: C_2  and  C_3
REMARK    2  A    between atoms: C_2  and  N_18
REMARK    3  A    between atoms: C_3  and  C_4
REMARK    4  A    between atoms: C_4  and  O_22
REMARK    5  A    between atoms: C_6  and  C_13
REMARK    6  A    between atoms: C_14  and  C_15
REMARK    7  A    between atoms: C_14  and  N_21
REMARK    8  A    between atoms: C_15  and  O_26
REMARK    9  A    between atoms: C_16  and  O_26
REMARK                            x       y       z     vdW  Elec       q    Type
REMARK                         _______ _______ _______ _____ _____    ______ ____
ROOT
ATOM      1  C   UNL     1     -45.735 -15.747 -21.837  0.00  0.00    +0.000 A 
ATOM      2  C   UNL     1     -45.511 -14.579 -23.638  0.00  0.00    +0.000 A 
ATOM      3  C   UNL     1     -46.061 -13.710 -22.693  0.00  0.00    +0.000 A 
ATOM      4  C   UNL     1     -46.185 -14.491 -21.562  0.00  0.00    +0.000 A 
ATOM      5  C   UNL     1     -46.671 -14.181 -20.302  0.00  0.00    +0.000 A 
ATOM      6  C   UNL     1     -47.194 -14.865 -18.013  0.00  0.00    +0.000 C 
ATOM      7  C   UNL     1     -46.252 -16.439 -19.645  0.00  0.00    +0.000 A 
ATOM      8  C   UNL     1     -45.372 -18.108 -21.207  0.00  0.00    +0.000 C 
ATOM      9  N   UNL     1     -45.302 -15.819 -23.114  0.00  0.00    +0.000 N 
ATOM     10  N   UNL     1     -46.691 -15.166 -19.351  0.00  0.00    +0.000 N 
ATOM     11  N   UNL     1     -45.774 -16.740 -20.899  0.00  0.00    +0.000 N 
ATOM     12  O   UNL     1     -46.292 -17.337 -18.757  0.00  0.00    +0.000 OA
ATOM     13  O   UNL     1     -47.083 -13.015 -20.044  0.00  0.00    +0.000 OA
ENDROOT
BRANCH   2  14
ATOM     14  C   UNL     1     -45.220 -14.170 -25.029  0.00  0.00    +0.000 C 
ATOM     15  N   UNL     1     -46.250 -14.159 -26.018  0.00  0.00    +0.000 NA
ATOM     16  O   UNL     1     -44.051 -13.810 -25.338  0.00  0.00    +0.000 OA
BRANCH  15  17
ATOM     17  C   UNL     1     -46.001 -13.762 -27.393  0.00  0.00    +0.000 C 
BRANCH  17  18
ATOM     18  C   UNL     1     -47.000 -12.741 -27.803  0.00  0.00    +0.000 C 
ATOM     19  O   UNL     1     -47.492 -11.968 -26.936  0.00  0.00    +0.000 OA
BRANCH  18  20
ATOM     20  O   UNL     1     -47.352 -12.625 -29.148  0.00  0.00    +0.000 OA
BRANCH  20  21
ATOM     21  C   UNL     1     -46.403 -12.807 -30.189  0.00  0.00    +0.000 C 
ATOM     22  C   UNL     1     -45.880 -11.459 -30.634  0.00  0.00    +0.000 C 
ENDBRANCH  20  21
ENDBRANCH  18  20
ENDBRANCH  17  18
ENDBRANCH  15  17
ENDBRANCH   2  14
BRANCH   9  23
ATOM     23  C   UNL     1     -44.641 -16.949 -23.766  0.00  0.00    +0.000 C 
BRANCH  23  24
ATOM     24  C   UNL     1     -45.585 -17.641 -24.744  0.00  0.00    +0.000 C 
BRANCH  24  25
ATOM     25  C   UNL     1     -45.621 -19.143 -24.519  0.00  0.00    +0.000 C 
BRANCH  25  27
ATOM     26  C   UNL     1     -44.318 -19.637 -26.228  0.00  0.00    +0.000 C 
ATOM     27  O   UNL     1     -45.614 -19.809 -25.745  0.00  0.00    +0.000 OA
ENDBRANCH  25  27
ENDBRANCH  24  25
ENDBRANCH  23  24
ENDBRANCH   9  23
TORSDOF 9
ENDMDL
MODEL 2
REMARK VINA RESULT:      -5.3      9.413     11.610
REMARK  Name = ZINC000011845161 MCULE-6424288385 MolPort-005-300-936
REMARK  9 active torsions:
REMARK  status: ('A' for Active; 'I' for Inactive)
REMARK    1  A    between atoms: C_2  and  C_3
REMARK    2  A    between atoms: C_2  and  N_18
REMARK    3  A    between atoms: C_3  and  C_4
REMARK    4  A    between atoms: C_4  and  O_22
REMARK    5  A    between atoms: C_6  and  C_13
REMARK    6  A    between atoms: C_14  and  C_15
REMARK    7  A    between atoms: C_14  and  N_21
REMARK    8  A    between atoms: C_15  and  O_26
REMARK    9  A    between atoms: C_16  and  O_26
REMARK                            x       y       z     vdW  Elec       q    Type
REMARK                         _______ _______ _______ _____ _____    ______ ____
ROOT
ATOM      1  C   UNL     1     -46.734  -5.029 -25.390  0.00  0.00    +0.000 A 
ATOM      2  C   UNL     1     -46.974  -4.549 -27.481  0.00  0.00    +0.000 A 
ATOM      3  C   UNL     1     -47.332  -3.392 -26.786  0.00  0.00    +0.000 A 
ATOM      4  C   UNL     1     -47.163  -3.739 -25.461  0.00  0.00    +0.000 A 
ATOM      5  C   UNL     1     -47.364  -3.002 -24.305  0.00  0.00    +0.000 A 
ATOM      6  C   UNL     1     -47.325  -2.851 -21.864  0.00  0.00    +0.000 C 
ATOM      7  C   UNL     1     -46.711  -4.918 -23.037  0.00  0.00    +0.000 A 
ATOM      8  C   UNL     1     -46.137  -7.049 -24.099  0.00  0.00    +0.000 C 
ATOM      9  N   UNL     1     -46.599  -5.546 -26.631  0.00  0.00    +0.000 N 
ATOM     10  N   UNL     1     -47.125  -3.606 -23.098  0.00  0.00    +0.000 N 
ATOM     11  N   UNL     1     -46.517  -5.644 -24.189  0.00  0.00    +0.000 N 
ATOM     12  O   UNL     1     -46.510  -5.461 -21.913  0.00  0.00    +0.000 OA
ATOM     13  O   UNL     1     -47.756  -1.804 -24.370  0.00  0.00    +0.000 OA
ENDROOT
BRANCH   2  14
ATOM     14  C   UNL     1     -47.023  -4.647 -28.955  0.00  0.00    +0.000 C 
ATOM     15  N   UNL     1     -46.487  -3.607 -29.775  0.00  0.00    +0.000 NA
ATOM     16  O   UNL     1     -47.526  -5.671 -29.492  0.00  0.00    +0.000 OA
BRANCH  15  17
ATOM     17  C   UNL     1     -46.516  -3.671 -31.226  0.00  0.00    +0.000 C 
BRANCH  17  18
ATOM     18  C   UNL     1     -45.773  -2.513 -31.788  0.00  0.00    +0.000 C 
ATOM     19  O   UNL     1     -45.498  -1.531 -31.046  0.00  0.00    +0.000 OA
BRANCH  18  20
ATOM     20  O   UNL     1     -45.356  -2.544 -33.119  0.00  0.00    +0.000 OA
BRANCH  20  21
ATOM     21  C   UNL     1     -44.356  -1.665 -33.611  0.00  0.00    +0.000 C 
ATOM     22  C   UNL     1     -43.042  -2.408 -33.724  0.00  0.00    +0.000 C 
ENDBRANCH  20  21
ENDBRANCH  18  20
ENDBRANCH  17  18
ENDBRANCH  15  17
ENDBRANCH   2  14
BRANCH   9  23
ATOM     23  C   UNL     1     -46.055  -6.854 -26.994  0.00  0.00    +0.000 C 
BRANCH  23  24
ATOM     24  C   UNL     1     -44.571  -6.749 -27.335  0.00  0.00    +0.000 C 
BRANCH  24  25
ATOM     25  C   UNL     1     -44.300  -7.135 -28.779  0.00  0.00    +0.000 C 
BRANCH  25  27
ATOM     26  C   UNL     1     -42.355  -6.322 -29.427  0.00  0.00    +0.000 C 
ATOM     27  O   UNL     1     -43.725  -6.062 -29.459  0.00  0.00    +0.000 OA
ENDBRANCH  25  27
ENDBRANCH  24  25
ENDBRANCH  23  24
ENDBRANCH   9  23
TORSDOF 9
ENDMDL
MODEL 3
REMARK VINA RESULT:      -5.3      2.266      7.345
REMARK  Name = ZINC000011845161 MCULE-6424288385 MolPort-005-300-936
REMARK  9 active torsions:
REMARK  status: ('A' for Active; 'I' for Inactive)
REMARK    1  A    between atoms: C_2  and  C_3
REMARK    2  A    between atoms: C_2  and  N_18
REMARK    3  A    between atoms: C_3  and  C_4
REMARK    4  A    between atoms: C_4  and  O_22
REMARK    5  A    between atoms: C_6  and  C_13
REMARK    6  A    between atoms: C_14  and  C_15
REMARK    7  A    between atoms: C_14  and  N_21
REMARK    8  A    between atoms: C_15  and  O_26
REMARK    9  A    between atoms: C_16  and  O_26
REMARK                            x       y       z     vdW  Elec       q    Type
REMARK                         _______ _______ _______ _____ _____    ______ ____
ROOT
ATOM      1  C   UNL     1     -44.651 -15.734 -26.752  0.00  0.00    +0.000 A 
ATOM      2  C   UNL     1     -45.303 -16.857 -25.027  0.00  0.00    +0.000 A 
ATOM      3  C   UNL     1     -46.009 -15.653 -24.981  0.00  0.00    +0.000 A 
ATOM      4  C   UNL     1     -45.568 -14.970 -26.096  0.00  0.00    +0.000 A 
ATOM      5  C   UNL     1     -45.909 -13.717 -26.578  0.00  0.00    +0.000 A 
ATOM      6  C   UNL     1     -45.645 -11.955 -28.253  0.00  0.00    +0.000 C 
ATOM      7  C   UNL     1     -44.359 -14.043 -28.366  0.00  0.00    +0.000 A 
ATOM      8  C   UNL     1     -42.981 -16.061 -28.543  0.00  0.00    +0.000 C 
ATOM      9  N   UNL     1     -44.482 -16.912 -26.113  0.00  0.00    +0.000 N 
ATOM     10  N   UNL     1     -45.300 -13.270 -27.721  0.00  0.00    +0.000 N 
ATOM     11  N   UNL     1     -44.023 -15.285 -27.879  0.00  0.00    +0.000 N 
ATOM     12  O   UNL     1     -43.798 -13.607 -29.411  0.00  0.00    +0.000 OA
ATOM     13  O   UNL     1     -46.763 -13.010 -25.974  0.00  0.00    +0.000 OA
ENDROOT
BRANCH   2  14
ATOM     14  C   UNL     1     -45.445 -17.910 -24.000  0.00  0.00    +0.000 C 
ATOM     15  N   UNL     1     -45.007 -17.686 -22.658  0.00  0.00    +0.000 NA
ATOM     16  O   UNL     1     -45.977 -19.011 -24.308  0.00  0.00    +0.000 OA
BRANCH  15  17
ATOM     17  C   UNL     1     -45.132 -18.697 -21.623  0.00  0.00    +0.000 C 
BRANCH  17  18
ATOM     18  C   UNL     1     -46.024 -18.195 -20.545  0.00  0.00    +0.000 C 
ATOM     19  O   UNL     1     -46.744 -19.007 -19.905  0.00  0.00    +0.000 OA
BRANCH  18  20
ATOM     20  O   UNL     1     -46.026 -16.835 -20.232  0.00  0.00    +0.000 OA
BRANCH  20  21
ATOM     21  C   UNL     1     -46.041 -16.377 -18.888  0.00  0.00    +0.000 C 
ATOM     22  C   UNL     1     -47.419 -15.848 -18.551  0.00  0.00    +0.000 C 
ENDBRANCH  20  21
ENDBRANCH  18  20
ENDBRANCH  17  18
ENDBRANCH  15  17
ENDBRANCH   2  14
BRANCH   9  23
ATOM     23  C   UNL     1     -43.679 -18.054 -26.552  0.00  0.00    +0.000 C 
BRANCH  23  24
ATOM     24  C   UNL     1     -42.423 -18.196 -25.698  0.00  0.00    +0.000 C 
BRANCH  24  25
ATOM     25  C   UNL     1     -42.251 -19.616 -25.187  0.00  0.00    +0.000 C 
BRANCH  25  27
ATOM     26  C   UNL     1     -42.801 -20.937 -23.509  0.00  0.00    +0.000 C 
ATOM     27  O   UNL     1     -42.377 -19.641 -23.798  0.00  0.00    +0.000 OA
ENDBRANCH  25  27
ENDBRANCH  24  25
ENDBRANCH  23  24
ENDBRANCH   9  23
TORSDOF 9
ENDMDL
