MODEL 1
REMARK VINA RESULT:      -6.2      0.000      0.000
REMARK  Name = ZINC000021788064 ZINC21788064
REMARK  6 active torsions:
REMARK  status: ('A' for Active; 'I' for Inactive)
REMARK    1  A    between atoms: N_5  and  C_14
REMARK    2  A    between atoms: C_12  and  C_21
REMARK    3  A    between atoms: C_24  and  O_29
REMARK    4  A    between atoms: C_25  and  O_27
REMARK    5  A    between atoms: O_29  and  C_30
REMARK    6  A    between atoms: C_30  and  C_31
REMARK                            x       y       z     vdW  Elec       q    Type
REMARK                         _______ _______ _______ _____ _____    ______ ____
ROOT
ATOM      1  C   UNL     1     -42.995  -7.656 -29.763  0.00  0.00    +0.000 C 
ATOM      2  C   UNL     1     -43.718  -6.674 -30.617  0.00  0.00    +0.000 A 
ATOM      3  C   UNL     1     -44.637  -6.945 -31.633  0.00  0.00    +0.000 A 
ATOM      4  C   UNL     1     -44.891  -5.677 -32.175  0.00  0.00    +0.000 A 
ATOM      5  N   UNL     1     -44.213  -4.749 -31.459  0.00  0.00    +0.000 N 
ATOM      6  N   UNL     1     -43.494  -5.353 -30.527  0.00  0.00    +0.000 NA
ATOM      7  N   UNL     1     -45.666  -5.333 -33.338  0.00  0.00    +0.000 N 
ATOM      8  C   UNL     1     -46.219  -6.160 -34.365  0.00  0.00    +0.000 C 
ATOM      9  O   UNL     1     -46.877  -5.623 -35.292  0.00  0.00    +0.000 OA
ATOM     10  C   UNL     1     -46.040  -7.630 -34.382  0.00  0.00    +0.000 C 
ATOM     11  S   UNL     1     -46.740  -8.303 -32.865  0.00  0.00    +0.000 S 
ATOM     12  C   UNL     1     -45.086  -8.316 -32.115  0.00  0.00    +0.000 C 
ATOM     13  H   UNL     1     -45.846  -4.370 -33.443  0.00  0.00    +0.000 HD
ENDROOT
BRANCH   5  14
ATOM     14  C   UNL     1     -44.191  -3.319 -31.647  0.00  0.00    +0.000 A 
ATOM     15  C   UNL     1     -45.275  -2.511 -31.266  0.00  0.00    +0.000 A 
ATOM     16  C   UNL     1     -45.228  -1.126 -31.444  0.00  0.00    +0.000 A 
ATOM     17  C   UNL     1     -44.095  -0.531 -32.003  0.00  0.00    +0.000 A 
ATOM     18  C   UNL     1     -43.008  -1.322 -32.381  0.00  0.00    +0.000 A 
ATOM     19  C   UNL     1     -43.055  -2.707 -32.202  0.00  0.00    +0.000 A 
ATOM     20 CL   UNL     1     -41.586  -0.579 -33.082  0.00  0.00    +0.000 Cl
ENDBRANCH   5  14
BRANCH  12  21
ATOM     21  C   UNL     1     -45.048  -9.378 -31.057  0.00  0.00    +0.000 A 
ATOM     22  C   UNL     1     -44.123 -10.429 -31.115  0.00  0.00    +0.000 A 
ATOM     23  C   UNL     1     -44.111 -11.406 -30.120  0.00  0.00    +0.000 A 
ATOM     24  C   UNL     1     -45.022 -11.347 -29.053  0.00  0.00    +0.000 A 
ATOM     25  C   UNL     1     -45.947 -10.293 -28.989  0.00  0.00    +0.000 A 
ATOM     26  C   UNL     1     -45.953  -9.313 -29.994  0.00  0.00    +0.000 A 
BRANCH  25  27
ATOM     27  O   UNL     1     -46.850 -10.240 -27.920  0.00  0.00    +0.000 OA
ATOM     28  C   UNL     1     -47.213  -9.025 -27.280  0.00  0.00    +0.000 C 
ENDBRANCH  25  27
BRANCH  24  29
ATOM     29  O   UNL     1     -45.024 -12.320 -28.045  0.00  0.00    +0.000 OA
BRANCH  29  30
ATOM     30  C   UNL     1     -45.699 -13.569 -28.164  0.00  0.00    +0.000 C 
BRANCH  30  31
ATOM     31  C   UNL     1     -44.716 -14.689 -28.163  0.00  0.00    +0.000 C 
ATOM     32  O   UNL     1     -43.966 -14.870 -29.158  0.00  0.00    +0.000 OA
ATOM     33  N   UNL     1     -44.637 -15.567 -27.047  0.00  0.00    +0.000 N 
ATOM     34  H   UNL     1     -45.222 -15.427 -26.268  0.00  0.00    +0.000 HD
ATOM     35  H   UNL     1     -43.996 -16.314 -27.052  0.00  0.00    +0.000 HD
ENDBRANCH  30  31
ENDBRANCH  29  30
ENDBRANCH  24  29
ENDBRANCH  12  21
TORSDOF 6
ENDMDL
MODEL 2
REMARK VINA RESULT:      -6.1      1.040      2.065
REMARK  Name = ZINC000021788064 ZINC21788064
REMARK  6 active torsions:
REMARK  status: ('A' for Active; 'I' for Inactive)
REMARK    1  A    between atoms: N_5  and  C_14
REMARK    2  A    between atoms: C_12  and  C_21
REMARK    3  A    between atoms: C_24  and  O_29
REMARK    4  A    between atoms: C_25  and  O_27
REMARK    5  A    between atoms: O_29  and  C_30
REMARK    6  A    between atoms: C_30  and  C_31
REMARK                            x       y       z     vdW  Elec       q    Type
REMARK                         _______ _______ _______ _____ _____    ______ ____
ROOT
ATOM      1  C   UNL     1     -42.816  -7.368 -29.702  0.00  0.00    +0.000 C 
ATOM      2  C   UNL     1     -43.580  -6.415 -30.555  0.00  0.00    +0.000 A 
ATOM      3  C   UNL     1     -44.537  -6.720 -31.524  0.00  0.00    +0.000 A 
ATOM      4  C   UNL     1     -44.821  -5.470 -32.092  0.00  0.00    +0.000 A 
ATOM      5  N   UNL     1     -44.120  -4.518 -31.431  0.00  0.00    +0.000 N 
ATOM      6  N   UNL     1     -43.361  -5.090 -30.512  0.00  0.00    +0.000 NA
ATOM      7  N   UNL     1     -45.645  -5.164 -33.231  0.00  0.00    +0.000 N 
ATOM      8  C   UNL     1     -46.234  -6.024 -34.210  0.00  0.00    +0.000 C 
ATOM      9  O   UNL     1     -46.933  -5.517 -35.125  0.00  0.00    +0.000 OA
ATOM     10  C   UNL     1     -46.047  -7.492 -34.192  0.00  0.00    +0.000 C 
ATOM     11  S   UNL     1     -46.679  -8.124 -32.629  0.00  0.00    +0.000 S 
ATOM     12  C   UNL     1     -44.997  -8.107 -31.948  0.00  0.00    +0.000 C 
ATOM     13  H   UNL     1     -45.836  -4.205 -33.356  0.00  0.00    +0.000 HD
ENDROOT
BRANCH   5  14
ATOM     14  C   UNL     1     -44.115  -3.094 -31.660  0.00  0.00    +0.000 A 
ATOM     15  C   UNL     1     -45.203  -2.286 -31.290  0.00  0.00    +0.000 A 
ATOM     16  C   UNL     1     -45.172  -0.906 -31.509  0.00  0.00    +0.000 A 
ATOM     17  C   UNL     1     -44.052  -0.316 -32.099  0.00  0.00    +0.000 A 
ATOM     18  C   UNL     1     -42.962  -1.108 -32.468  0.00  0.00    +0.000 A 
ATOM     19  C   UNL     1     -42.993  -2.487 -32.248  0.00  0.00    +0.000 A 
ATOM     20 CL   UNL     1     -41.557  -0.371 -33.207  0.00  0.00    +0.000 Cl
ENDBRANCH   5  14
BRANCH  12  21
ATOM     21  C   UNL     1     -44.909  -9.138 -30.862  0.00  0.00    +0.000 A 
ATOM     22  C   UNL     1     -45.834  -9.165 -29.810  0.00  0.00    +0.000 A 
ATOM     23  C   UNL     1     -45.729 -10.132 -28.810  0.00  0.00    +0.000 A 
ATOM     24  C   UNL     1     -44.698 -11.084 -28.846  0.00  0.00    +0.000 A 
ATOM     25  C   UNL     1     -43.772 -11.063 -29.901  0.00  0.00    +0.000 A 
ATOM     26  C   UNL     1     -43.885 -10.088 -30.904  0.00  0.00    +0.000 A 
BRANCH  25  27
ATOM     27  O   UNL     1     -42.749 -12.019 -29.932  0.00  0.00    +0.000 OA
ATOM     28  C   UNL     1     -41.393 -11.685 -30.193  0.00  0.00    +0.000 C 
ENDBRANCH  25  27
BRANCH  24  29
ATOM     29  O   UNL     1     -44.577 -12.061 -27.850  0.00  0.00    +0.000 OA
BRANCH  29  30
ATOM     30  C   UNL     1     -45.390 -13.230 -27.797  0.00  0.00    +0.000 C 
BRANCH  30  31
ATOM     31  C   UNL     1     -46.212 -13.230 -26.553  0.00  0.00    +0.000 C 
ATOM     32  O   UNL     1     -46.911 -12.225 -26.261  0.00  0.00    +0.000 OA
ATOM     33  N   UNL     1     -46.193 -14.358 -25.687  0.00  0.00    +0.000 N 
ATOM     34  H   UNL     1     -45.647 -15.145 -25.915  0.00  0.00    +0.000 HD
ATOM     35  H   UNL     1     -46.726 -14.352 -24.859  0.00  0.00    +0.000 HD
ENDBRANCH  30  31
ENDBRANCH  29  30
ENDBRANCH  24  29
ENDBRANCH  12  21
TORSDOF 6
ENDMDL
MODEL 3
REMARK VINA RESULT:      -6.0      4.087      9.011
REMARK  Name = ZINC000021788064 ZINC21788064
REMARK  6 active torsions:
REMARK  status: ('A' for Active; 'I' for Inactive)
REMARK    1  A    between atoms: N_5  and  C_14
REMARK    2  A    between atoms: C_12  and  C_21
REMARK    3  A    between atoms: C_24  and  O_29
REMARK    4  A    between atoms: C_25  and  O_27
REMARK    5  A    between atoms: O_29  and  C_30
REMARK    6  A    between atoms: C_30  and  C_31
REMARK                            x       y       z     vdW  Elec       q    Type
REMARK                         _______ _______ _______ _____ _____    ______ ____
ROOT
ATOM      1  C   UNL     1     -46.065  -6.884 -30.657  0.00  0.00    +0.000 C 
ATOM      2  C   UNL     1     -45.877  -8.341 -30.903  0.00  0.00    +0.000 A 
ATOM      3  C   UNL     1     -45.734  -8.984 -32.135  0.00  0.00    +0.000 A 
ATOM      4  C   UNL     1     -45.725 -10.341 -31.783  0.00  0.00    +0.000 A 
ATOM      5  N   UNL     1     -45.785 -10.446 -30.434  0.00  0.00    +0.000 N 
ATOM      6  N   UNL     1     -45.891  -9.239 -29.904  0.00  0.00    +0.000 NA
ATOM      7  N   UNL     1     -45.727 -11.495 -32.642  0.00  0.00    +0.000 N 
ATOM      8  C   UNL     1     -45.937 -11.603 -34.053  0.00  0.00    +0.000 C 
ATOM      9  O   UNL     1     -45.885 -12.738 -34.592  0.00  0.00    +0.000 OA
ATOM     10  C   UNL     1     -46.223 -10.426 -34.904  0.00  0.00    +0.000 C 
ATOM     11  S   UNL     1     -44.845  -9.276 -34.762  0.00  0.00    +0.000 S 
ATOM     12  C   UNL     1     -45.765  -8.337 -33.511  0.00  0.00    +0.000 C 
ATOM     13  H   UNL     1     -45.555 -12.350 -32.185  0.00  0.00    +0.000 HD
ENDROOT
BRANCH   5  14
ATOM     14  C   UNL     1     -45.784 -11.644 -29.632  0.00  0.00    +0.000 A 
ATOM     15  C   UNL     1     -46.902 -12.018 -28.867  0.00  0.00    +0.000 A 
ATOM     16  C   UNL     1     -46.886 -13.190 -28.107  0.00  0.00    +0.000 A 
ATOM     17  C   UNL     1     -45.753 -14.005 -28.103  0.00  0.00    +0.000 A 
ATOM     18  C   UNL     1     -44.636 -13.648 -28.861  0.00  0.00    +0.000 A 
ATOM     19  C   UNL     1     -44.653 -12.476 -29.623  0.00  0.00    +0.000 A 
ATOM     20 CL   UNL     1     -43.213 -14.668 -28.859  0.00  0.00    +0.000 Cl
ENDBRANCH   5  14
BRANCH  12  21
ATOM     21  C   UNL     1     -45.284  -6.916 -33.529  0.00  0.00    +0.000 A 
ATOM     22  C   UNL     1     -46.181  -5.848 -33.661  0.00  0.00    +0.000 A 
ATOM     23  C   UNL     1     -45.708  -4.535 -33.678  0.00  0.00    +0.000 A 
ATOM     24  C   UNL     1     -44.333  -4.273 -33.564  0.00  0.00    +0.000 A 
ATOM     25  C   UNL     1     -43.432  -5.340 -33.426  0.00  0.00    +0.000 A 
ATOM     26  C   UNL     1     -43.916  -6.658 -33.408  0.00  0.00    +0.000 A 
BRANCH  25  27
ATOM     27  O   UNL     1     -42.064  -5.070 -33.308  0.00  0.00    +0.000 OA
ATOM     28  C   UNL     1     -41.388  -5.051 -32.058  0.00  0.00    +0.000 C 
ENDBRANCH  25  27
BRANCH  24  29
ATOM     29  O   UNL     1     -43.841  -2.961 -33.579  0.00  0.00    +0.000 OA
BRANCH  29  30
ATOM     30  C   UNL     1     -44.677  -1.810 -33.512  0.00  0.00    +0.000 C 
BRANCH  30  31
ATOM     31  C   UNL     1     -44.459  -1.088 -32.227  0.00  0.00    +0.000 C 
ATOM     32  O   UNL     1     -43.726  -0.065 -32.196  0.00  0.00    +0.000 OA
ATOM     33  N   UNL     1     -45.063  -1.564 -31.030  0.00  0.00    +0.000 N 
ATOM     34  H   UNL     1     -45.636  -2.364 -31.053  0.00  0.00    +0.000 HD
ATOM     35  H   UNL     1     -44.907  -1.094 -30.179  0.00  0.00    +0.000 HD
ENDBRANCH  30  31
ENDBRANCH  29  30
ENDBRANCH  24  29
ENDBRANCH  12  21
TORSDOF 6
ENDMDL
