MODEL 1
REMARK VINA RESULT:      -7.6      0.000      0.000
REMARK  Name = ZINC000002104886 ZINC02104886 PubChem-1759855
REMARK  3 active torsions:
REMARK  status: ('A' for Active; 'I' for Inactive)
REMARK    1  A    between atoms: C_12  and  C_20
REMARK    2  A    between atoms: N_27  and  C_31
REMARK    3  A    between atoms: C_36  and  O_37
REMARK                            x       y       z     vdW  Elec       q    Type
REMARK                         _______ _______ _______ _____ _____    ______ ____
ROOT
ATOM      1  C   UNL     1     -44.423 -12.465 -30.190  0.00  0.00    +0.000 C 
ATOM      2  C   UNL     1     -45.120 -12.862 -28.924  0.00  0.00    +0.000 A 
ATOM      3  C   UNL     1     -44.747 -14.032 -28.241  0.00  0.00    +0.000 A 
ATOM      4  C   UNL     1     -43.715 -14.857 -28.709  0.00  0.00    +0.000 A 
ATOM      5  C   UNL     1     -43.350 -16.004 -28.005  0.00  0.00    +0.000 A 
ATOM      6  C   UNL     1     -44.036 -16.354 -26.827  0.00  0.00    +0.000 A 
ATOM      7  C   UNL     1     -45.082 -15.540 -26.352  0.00  0.00    +0.000 A 
ATOM      8  C   UNL     1     -45.433 -14.374 -27.053  0.00  0.00    +0.000 A 
ATOM      9  O   UNL     1     -46.414 -13.599 -26.604  0.00  0.00    +0.000 OA
ATOM     10  C   UNL     1     -46.794 -12.483 -27.217  0.00  0.00    +0.000 A 
ATOM     11  O   UNL     1     -47.754 -11.821 -26.741  0.00  0.00    +0.000 OA
ATOM     12  C   UNL     1     -46.142 -12.055 -28.391  0.00  0.00    +0.000 A 
ATOM     13  C   UNL     1     -45.772 -15.883 -25.057  0.00  0.00    +0.000 C 
ATOM     14  C   UNL     1     -45.689 -17.377 -24.750  0.00  0.00    +0.000 C 
ATOM     15  C   UNL     1     -44.234 -17.829 -24.795  0.00  0.00    +0.000 C 
ATOM     16  N   UNL     1     -43.665 -17.547 -26.109  0.00  0.00    +0.000 N 
ATOM     17  C   UNL     1     -42.728 -18.501 -26.695  0.00  0.00    +0.000 C 
ATOM     18  C   UNL     1     -41.640 -17.758 -27.463  0.00  0.00    +0.000 C 
ATOM     19  C   UNL     1     -42.275 -16.898 -28.555  0.00  0.00    +0.000 C 
ENDROOT
BRANCH  12  20
ATOM     20  C   UNL     1     -46.573 -10.830 -29.101  0.00  0.00    +0.000 C 
ATOM     21  C   UNL     1     -46.201  -9.568 -28.824  0.00  0.00    +0.000 C 
ATOM     22  C   UNL     1     -46.837  -8.465 -29.567  0.00  0.00    +0.000 C 
ATOM     23  O   UNL     1     -47.638  -8.700 -30.512  0.00  0.00    +0.000 OA
ATOM     24  N   UNL     1     -46.558  -7.112 -29.210  0.00  0.00    +0.000 N 
ATOM     25  C   UNL     1     -45.673  -6.791 -28.137  0.00  0.00    +0.000 C 
ATOM     26  O   UNL     1     -45.517  -5.584 -27.812  0.00  0.00    +0.000 OA
ATOM     27  N   UNL     1     -44.980  -7.837 -27.428  0.00  0.00    +0.000 N 
ATOM     28  C   UNL     1     -45.154  -9.211 -27.832  0.00  0.00    +0.000 C 
ATOM     29  O   UNL     1     -44.370 -10.093 -27.385  0.00  0.00    +0.000 OA
ATOM     30  H   UNL     1     -46.986  -6.384 -29.715  0.00  0.00    +0.000 HD
BRANCH  27  31
ATOM     31  C   UNL     1     -44.076  -7.509 -26.355  0.00  0.00    +0.000 A 
ATOM     32  C   UNL     1     -42.748  -7.166 -26.648  0.00  0.00    +0.000 A 
ATOM     33  C   UNL     1     -41.853  -6.859 -25.620  0.00  0.00    +0.000 A 
ATOM     34  C   UNL     1     -42.278  -6.891 -24.292  0.00  0.00    +0.000 A 
ATOM     35  C   UNL     1     -43.599  -7.227 -23.990  0.00  0.00    +0.000 A 
ATOM     36  C   UNL     1     -44.510  -7.536 -25.015  0.00  0.00    +0.000 A 
BRANCH  36  37
ATOM     37  O   UNL     1     -45.841  -7.857 -24.724  0.00  0.00    +0.000 OA
ATOM     38  C   UNL     1     -46.233  -9.121 -24.205  0.00  0.00    +0.000 C 
ENDBRANCH  36  37
ENDBRANCH  27  31
ENDBRANCH  12  20
TORSDOF 3
ENDMDL
MODEL 2
REMARK VINA RESULT:      -7.2      4.022      9.157
REMARK  Name = ZINC000002104886 ZINC02104886 PubChem-1759855
REMARK  3 active torsions:
REMARK  status: ('A' for Active; 'I' for Inactive)
REMARK    1  A    between atoms: C_12  and  C_20
REMARK    2  A    between atoms: N_27  and  C_31
REMARK    3  A    between atoms: C_36  and  O_37
REMARK                            x       y       z     vdW  Elec       q    Type
REMARK                         _______ _______ _______ _____ _____    ______ ____
ROOT
ATOM      1  C   UNL     1     -47.292  -8.375 -32.118  0.00  0.00    +0.000 C 
ATOM      2  C   UNL     1     -45.840  -8.111 -31.857  0.00  0.00    +0.000 A 
ATOM      3  C   UNL     1     -45.283  -6.851 -32.132  0.00  0.00    +0.000 A 
ATOM      4  C   UNL     1     -46.058  -5.802 -32.647  0.00  0.00    +0.000 A 
ATOM      5  C   UNL     1     -45.487  -4.555 -32.896  0.00  0.00    +0.000 A 
ATOM      6  C   UNL     1     -44.117  -4.347 -32.653  0.00  0.00    +0.000 A 
ATOM      7  C   UNL     1     -43.324  -5.396 -32.146  0.00  0.00    +0.000 A 
ATOM      8  C   UNL     1     -43.908  -6.645 -31.877  0.00  0.00    +0.000 A 
ATOM      9  O   UNL     1     -43.166  -7.634 -31.391  0.00  0.00    +0.000 OA
ATOM     10  C   UNL     1     -43.655  -8.838 -31.113  0.00  0.00    +0.000 A 
ATOM     11  O   UNL     1     -42.875  -9.729 -30.683  0.00  0.00    +0.000 OA
ATOM     12  C   UNL     1     -45.022  -9.117 -31.311  0.00  0.00    +0.000 A 
ATOM     13  C   UNL     1     -41.872  -5.151 -31.826  0.00  0.00    +0.000 C 
ATOM     14  C   UNL     1     -41.292  -4.013 -32.663  0.00  0.00    +0.000 C 
ATOM     15  C   UNL     1     -42.160  -2.769 -32.507  0.00  0.00    +0.000 C 
ATOM     16  N   UNL     1     -43.528  -3.061 -32.923  0.00  0.00    +0.000 N 
ATOM     17  C   UNL     1     -44.285  -2.036 -33.635  0.00  0.00    +0.000 C 
ATOM     18  C   UNL     1     -45.748  -2.080 -33.209  0.00  0.00    +0.000 C 
ATOM     19  C   UNL     1     -46.329  -3.464 -33.496  0.00  0.00    +0.000 C 
ENDROOT
BRANCH  12  20
ATOM     20  C   UNL     1     -45.575 -10.462 -31.034  0.00  0.00    +0.000 C 
ATOM     21  C   UNL     1     -46.046 -10.909 -29.856  0.00  0.00    +0.000 C 
ATOM     22  C   UNL     1     -46.441 -12.325 -29.746  0.00  0.00    +0.000 C 
ATOM     23  O   UNL     1     -46.435 -13.078 -30.757  0.00  0.00    +0.000 OA
ATOM     24  N   UNL     1     -46.823 -12.861 -28.481  0.00  0.00    +0.000 N 
ATOM     25  C   UNL     1     -46.829 -12.058 -27.301  0.00  0.00    +0.000 C 
ATOM     26  O   UNL     1     -47.103 -12.595 -26.195  0.00  0.00    +0.000 OA
ATOM     27  N   UNL     1     -46.513 -10.653 -27.376  0.00  0.00    +0.000 N 
ATOM     28  C   UNL     1     -46.227 -10.052 -28.656  0.00  0.00    +0.000 C 
ATOM     29  O   UNL     1     -46.197  -8.795 -28.759  0.00  0.00    +0.000 OA
ATOM     30  H   UNL     1     -47.088 -13.807 -28.420  0.00  0.00    +0.000 HD
BRANCH  27  31
ATOM     31  C   UNL     1     -46.535  -9.841 -26.187  0.00  0.00    +0.000 A 
ATOM     32  C   UNL     1     -47.719  -9.189 -25.813  0.00  0.00    +0.000 A 
ATOM     33  C   UNL     1     -47.756  -8.386 -24.670  0.00  0.00    +0.000 A 
ATOM     34  C   UNL     1     -46.610  -8.228 -23.891  0.00  0.00    +0.000 A 
ATOM     35  C   UNL     1     -45.427  -8.877 -24.251  0.00  0.00    +0.000 A 
ATOM     36  C   UNL     1     -45.378  -9.689 -25.397  0.00  0.00    +0.000 A 
BRANCH  36  37
ATOM     37  O   UNL     1     -44.202 -10.357 -25.757  0.00  0.00    +0.000 OA
ATOM     38  C   UNL     1     -43.147  -9.730 -26.475  0.00  0.00    +0.000 C 
ENDBRANCH  36  37
ENDBRANCH  27  31
ENDBRANCH  12  20
TORSDOF 3
ENDMDL
MODEL 3
REMARK VINA RESULT:      -7.2      5.930      7.903
REMARK  Name = ZINC000002104886 ZINC02104886 PubChem-1759855
REMARK  3 active torsions:
REMARK  status: ('A' for Active; 'I' for Inactive)
REMARK    1  A    between atoms: C_12  and  C_20
REMARK    2  A    between atoms: N_27  and  C_31
REMARK    3  A    between atoms: C_36  and  O_37
REMARK                            x       y       z     vdW  Elec       q    Type
REMARK                         _______ _______ _______ _____ _____    ______ ____
ROOT
ATOM      1  C   UNL     1     -46.623  -7.747 -28.551  0.00  0.00    +0.000 C 
ATOM      2  C   UNL     1     -45.132  -7.901 -28.522  0.00  0.00    +0.000 A 
ATOM      3  C   UNL     1     -44.418  -7.712 -27.326  0.00  0.00    +0.000 A 
ATOM      4  C   UNL     1     -45.067  -7.385 -26.128  0.00  0.00    +0.000 A 
ATOM      5  C   UNL     1     -44.340  -7.219 -24.950  0.00  0.00    +0.000 A 
ATOM      6  C   UNL     1     -42.940  -7.357 -24.963  0.00  0.00    +0.000 A 
ATOM      7  C   UNL     1     -42.273  -7.674 -26.163  0.00  0.00    +0.000 A 
ATOM      8  C   UNL     1     -43.012  -7.861 -27.343  0.00  0.00    +0.000 A 
ATOM      9  O   UNL     1     -42.389  -8.168 -28.476  0.00  0.00    +0.000 OA
ATOM     10  C   UNL     1     -43.027  -8.360 -29.625  0.00  0.00    +0.000 A 
ATOM     11  O   UNL     1     -42.357  -8.619 -30.660  0.00  0.00    +0.000 OA
ATOM     12  C   UNL     1     -44.431  -8.259 -29.688  0.00  0.00    +0.000 A 
ATOM     13  C   UNL     1     -40.781  -7.884 -26.160  0.00  0.00    +0.000 C 
ATOM     14  C   UNL     1     -40.105  -7.123 -25.021  0.00  0.00    +0.000 C 
ATOM     15  C   UNL     1     -40.766  -7.490 -23.697  0.00  0.00    +0.000 C 
ATOM     16  N   UNL     1     -42.190  -7.173 -23.747  0.00  0.00    +0.000 N 
ATOM     17  C   UNL     1     -42.840  -6.646 -22.550  0.00  0.00    +0.000 C 
ATOM     18  C   UNL     1     -44.257  -7.198 -22.443  0.00  0.00    +0.000 C 
ATOM     19  C   UNL     1     -45.055  -6.819 -23.691  0.00  0.00    +0.000 C 
ENDROOT
BRANCH  12  20
ATOM     20  C   UNL     1     -45.153  -8.441 -30.967  0.00  0.00    +0.000 C 
ATOM     21  C   UNL     1     -45.465  -7.482 -31.857  0.00  0.00    +0.000 C 
ATOM     22  C   UNL     1     -46.300  -7.840 -33.018  0.00  0.00    +0.000 C 
ATOM     23  O   UNL     1     -46.632  -9.038 -33.230  0.00  0.00    +0.000 OA
ATOM     24  N   UNL     1     -46.754  -6.823 -33.910  0.00  0.00    +0.000 N 
ATOM     25  C   UNL     1     -46.423  -5.450 -33.706  0.00  0.00    +0.000 C 
ATOM     26  O   UNL     1     -46.908  -4.581 -34.478  0.00  0.00    +0.000 OA
ATOM     27  N   UNL     1     -45.554  -5.064 -32.621  0.00  0.00    +0.000 N 
ATOM     28  C   UNL     1     -44.989  -6.077 -31.764  0.00  0.00    +0.000 C 
ATOM     29  O   UNL     1     -44.047  -5.773 -30.982  0.00  0.00    +0.000 OA
ATOM     30  H   UNL     1     -47.308  -7.074 -34.683  0.00  0.00    +0.000 HD
BRANCH  27  31
ATOM     31  C   UNL     1     -45.210  -3.679 -32.427  0.00  0.00    +0.000 A 
ATOM     32  C   UNL     1     -44.197  -3.100 -33.205  0.00  0.00    +0.000 A 
ATOM     33  C   UNL     1     -43.839  -1.763 -33.022  0.00  0.00    +0.000 A 
ATOM     34  C   UNL     1     -44.490  -0.992 -32.058  0.00  0.00    +0.000 A 
ATOM     35  C   UNL     1     -45.503  -1.557 -31.281  0.00  0.00    +0.000 A 
ATOM     36  C   UNL     1     -45.874  -2.901 -31.458  0.00  0.00    +0.000 A 
BRANCH  36  37
ATOM     37  O   UNL     1     -46.900  -3.472 -30.696  0.00  0.00    +0.000 OA
ATOM     38  C   UNL     1     -46.682  -4.037 -29.410  0.00  0.00    +0.000 C 
ENDBRANCH  36  37
ENDBRANCH  27  31
ENDBRANCH  12  20
TORSDOF 3
ENDMDL
