MODEL 1
REMARK VINA RESULT:      -6.1      0.000      0.000
REMARK  Name = ZINC000004878449 PubChem-12923698
REMARK  9 active torsions:
REMARK  status: ('A' for Active; 'I' for Inactive)
REMARK    1  A    between atoms: N_17  and  C_20
REMARK    2  A    between atoms: C_20  and  C_21
REMARK    3  A    between atoms: C_21  and  O_22
REMARK    4  A    between atoms: C_21  and  C_24
REMARK    5  A    between atoms: C_24  and  O_25
REMARK    6  A    between atoms: C_24  and  C_27
REMARK    7  A    between atoms: C_27  and  O_28
REMARK    8  A    between atoms: C_27  and  C_30
REMARK    9  A    between atoms: C_30  and  O_31
REMARK                            x       y       z     vdW  Elec       q    Type
REMARK                         _______ _______ _______ _____ _____    ______ ____
ROOT
ATOM      1  C   UNL     1     -47.138  -3.403 -23.443  0.00  0.00    +0.000 C 
ATOM      2  C   UNL     1     -47.109  -3.905 -24.847  0.00  0.00    +0.000 A 
ATOM      3  C   UNL     1     -47.349  -3.052 -25.938  0.00  0.00    +0.000 A 
ATOM      4  C   UNL     1     -47.315  -3.561 -27.238  0.00  0.00    +0.000 A 
ATOM      5  C   UNL     1     -47.044  -4.919 -27.481  0.00  0.00    +0.000 A 
ATOM      6  C   UNL     1     -46.802  -5.769 -26.370  0.00  0.00    +0.000 A 
ATOM      7  C   UNL     1     -46.838  -5.257 -25.071  0.00  0.00    +0.000 A 
ATOM      8  C   UNL     1     -46.527  -7.120 -26.559  0.00  0.00    +0.000 A 
ATOM      9  C   UNL     1     -46.487  -7.639 -27.846  0.00  0.00    +0.000 A 
ATOM     10  C   UNL     1     -46.216  -8.980 -28.124  0.00  0.00    +0.000 A 
ATOM     11  O   UNL     1     -45.993  -9.800 -27.194  0.00  0.00    +0.000 OA
ATOM     12  N   UNL     1     -46.194  -9.407 -29.414  0.00  0.00    +0.000 N 
ATOM     13  C   UNL     1     -46.427  -8.566 -30.459  0.00  0.00    +0.000 A 
ATOM     14  O   UNL     1     -46.395  -9.010 -31.636  0.00  0.00    +0.000 OA
ATOM     15  N   UNL     1     -46.697  -7.251 -30.245  0.00  0.00    +0.000 NA
ATOM     16  C   UNL     1     -46.741  -6.738 -28.986  0.00  0.00    +0.000 A 
ATOM     17  N   UNL     1     -47.013  -5.416 -28.763  0.00  0.00    +0.000 N 
ATOM     18  C   UNL     1     -47.643  -1.603 -25.745  0.00  0.00    +0.000 C 
ATOM     19  H   UNL     1     -46.002 -10.355 -29.600  0.00  0.00    +0.000 HD
ENDROOT
BRANCH  17  20
ATOM     20  C   UNL     1     -47.279  -4.539 -29.909  0.00  0.00    +0.000 C 
BRANCH  20  21
ATOM     21  C   UNL     1     -45.989  -3.913 -30.418  0.00  0.00    +0.000 C 
BRANCH  21  22
ATOM     22  O   UNL     1     -46.111  -2.520 -30.448  0.00  0.00    +0.000 OA
ATOM     23  H   UNL     1     -45.260  -2.127 -30.698  0.00  0.00    +0.000 HD
ENDBRANCH  21  22
BRANCH  21  24
ATOM     24  C   UNL     1     -45.657  -4.462 -31.807  0.00  0.00    +0.000 C 
BRANCH  24  25
ATOM     25  O   UNL     1     -44.758  -5.531 -31.729  0.00  0.00    +0.000 OA
ATOM     26  H   UNL     1     -45.188  -6.284 -31.297  0.00  0.00    +0.000 HD
ENDBRANCH  24  25
BRANCH  24  27
ATOM     27  C   UNL     1     -46.894  -4.851 -32.620  0.00  0.00    +0.000 C 
BRANCH  27  28
ATOM     28  O   UNL     1     -46.764  -6.156 -33.100  0.00  0.00    +0.000 OA
ATOM     29  H   UNL     1     -46.688  -6.769 -32.351  0.00  0.00    +0.000 HD
ENDBRANCH  27  28
BRANCH  27  30
ATOM     30  C   UNL     1     -47.162  -3.891 -33.770  0.00  0.00    +0.000 C 
BRANCH  30  31
ATOM     31  O   UNL     1     -46.462  -2.702 -33.567  0.00  0.00    +0.000 OA
ATOM     32  H   UNL     1     -46.423  -2.203 -34.398  0.00  0.00    +0.000 HD
ENDBRANCH  30  31
ENDBRANCH  27  30
ENDBRANCH  24  27
ENDBRANCH  21  24
ENDBRANCH  20  21
ENDBRANCH  17  20
TORSDOF 9
ENDMDL
MODEL 2
REMARK VINA RESULT:      -5.9     11.534     15.378
REMARK  Name = ZINC000004878449 PubChem-12923698
REMARK  9 active torsions:
REMARK  status: ('A' for Active; 'I' for Inactive)
REMARK    1  A    between atoms: N_17  and  C_20
REMARK    2  A    between atoms: C_20  and  C_21
REMARK    3  A    between atoms: C_21  and  O_22
REMARK    4  A    between atoms: C_21  and  C_24
REMARK    5  A    between atoms: C_24  and  O_25
REMARK    6  A    between atoms: C_24  and  C_27
REMARK    7  A    between atoms: C_27  and  O_28
REMARK    8  A    between atoms: C_27  and  C_30
REMARK    9  A    between atoms: C_30  and  O_31
REMARK                            x       y       z     vdW  Elec       q    Type
REMARK                         _______ _______ _______ _____ _____    ______ ____
ROOT
ATOM      1  C   UNL     1     -46.629 -12.565 -19.333  0.00  0.00    +0.000 C 
ATOM      2  C   UNL     1     -46.332 -13.912 -19.901  0.00  0.00    +0.000 A 
ATOM      3  C   UNL     1     -46.195 -15.043 -19.079  0.00  0.00    +0.000 A 
ATOM      4  C   UNL     1     -45.915 -16.287 -19.649  0.00  0.00    +0.000 A 
ATOM      5  C   UNL     1     -45.766 -16.433 -21.039  0.00  0.00    +0.000 A 
ATOM      6  C   UNL     1     -45.909 -15.282 -21.858  0.00  0.00    +0.000 A 
ATOM      7  C   UNL     1     -46.188 -14.040 -21.285  0.00  0.00    +0.000 A 
ATOM      8  C   UNL     1     -45.773 -15.376 -23.241  0.00  0.00    +0.000 A 
ATOM      9  C   UNL     1     -45.498 -16.607 -23.822  0.00  0.00    +0.000 A 
ATOM     10  C   UNL     1     -45.348 -16.789 -25.197  0.00  0.00    +0.000 A 
ATOM     11  O   UNL     1     -45.458 -15.818 -25.993  0.00  0.00    +0.000 OA
ATOM     12  N   UNL     1     -45.081 -18.029 -25.685  0.00  0.00    +0.000 N 
ATOM     13  C   UNL     1     -44.953 -19.115 -24.873  0.00  0.00    +0.000 A 
ATOM     14  O   UNL     1     -44.705 -20.241 -25.374  0.00  0.00    +0.000 OA
ATOM     15  N   UNL     1     -45.087 -18.993 -23.526  0.00  0.00    +0.000 NA
ATOM     16  C   UNL     1     -45.353 -17.790 -22.951  0.00  0.00    +0.000 A 
ATOM     17  N   UNL     1     -45.489 -17.660 -21.596  0.00  0.00    +0.000 N 
ATOM     18  C   UNL     1     -46.340 -14.952 -17.597  0.00  0.00    +0.000 C 
ATOM     19  H   UNL     1     -44.977 -18.147 -26.657  0.00  0.00    +0.000 HD
ENDROOT
BRANCH  17  20
ATOM     20  C   UNL     1     -45.326 -18.844 -20.746  0.00  0.00    +0.000 C 
BRANCH  20  21
ATOM     21  C   UNL     1     -43.858 -19.065 -20.409  0.00  0.00    +0.000 C 
BRANCH  21  22
ATOM     22  O   UNL     1     -43.336 -20.099 -21.192  0.00  0.00    +0.000 OA
ATOM     23  H   UNL     1     -42.743 -20.646 -20.652  0.00  0.00    +0.000 HD
ENDBRANCH  21  22
BRANCH  21  24
ATOM     24  C   UNL     1     -43.707 -19.379 -18.918  0.00  0.00    +0.000 C 
BRANCH  24  25
ATOM     25  O   UNL     1     -44.933 -19.738 -18.349  0.00  0.00    +0.000 OA
ATOM     26  H   UNL     1     -45.024 -19.312 -17.483  0.00  0.00    +0.000 HD
ENDBRANCH  24  25
BRANCH  24  27
ATOM     27  C   UNL     1     -42.641 -20.437 -18.625  0.00  0.00    +0.000 C 
BRANCH  27  28
ATOM     28  O   UNL     1     -43.245 -21.672 -18.378  0.00  0.00    +0.000 OA
ATOM     29  H   UNL     1     -43.971 -21.808 -19.007  0.00  0.00    +0.000 HD
ENDBRANCH  27  28
BRANCH  27  30
ATOM     30  C   UNL     1     -41.740 -20.050 -17.462  0.00  0.00    +0.000 C 
BRANCH  30  31
ATOM     31  O   UNL     1     -42.513 -19.599 -16.393  0.00  0.00    +0.000 OA
ATOM     32  H   UNL     1     -42.505 -20.261 -15.685  0.00  0.00    +0.000 HD
ENDBRANCH  30  31
ENDBRANCH  27  30
ENDBRANCH  24  27
ENDBRANCH  21  24
ENDBRANCH  20  21
ENDBRANCH  17  20
TORSDOF 9
ENDMDL
MODEL 3
REMARK VINA RESULT:      -5.9      8.741     12.009
REMARK  Name = ZINC000004878449 PubChem-12923698
REMARK  9 active torsions:
REMARK  status: ('A' for Active; 'I' for Inactive)
REMARK    1  A    between atoms: N_17  and  C_20
REMARK    2  A    between atoms: C_20  and  C_21
REMARK    3  A    between atoms: C_21  and  O_22
REMARK    4  A    between atoms: C_21  and  C_24
REMARK    5  A    between atoms: C_24  and  O_25
REMARK    6  A    between atoms: C_24  and  C_27
REMARK    7  A    between atoms: C_27  and  O_28
REMARK    8  A    between atoms: C_27  and  C_30
REMARK    9  A    between atoms: C_30  and  O_31
REMARK                            x       y       z     vdW  Elec       q    Type
REMARK                         _______ _______ _______ _____ _____    ______ ____
ROOT
ATOM      1  C   UNL     1     -46.415 -19.216 -19.443  0.00  0.00    +0.000 C 
ATOM      2  C   UNL     1     -45.962 -18.362 -20.579  0.00  0.00    +0.000 A 
ATOM      3  C   UNL     1     -45.910 -16.962 -20.471  0.00  0.00    +0.000 A 
ATOM      4  C   UNL     1     -45.481 -16.197 -21.558  0.00  0.00    +0.000 A 
ATOM      5  C   UNL     1     -45.099 -16.803 -22.768  0.00  0.00    +0.000 A 
ATOM      6  C   UNL     1     -45.156 -18.218 -22.862  0.00  0.00    +0.000 A 
ATOM      7  C   UNL     1     -45.586 -18.980 -21.773  0.00  0.00    +0.000 A 
ATOM      8  C   UNL     1     -44.785 -18.865 -24.038  0.00  0.00    +0.000 A 
ATOM      9  C   UNL     1     -44.354 -18.118 -25.126  0.00  0.00    +0.000 A 
ATOM     10  C   UNL     1     -43.963 -18.686 -26.340  0.00  0.00    +0.000 A 
ATOM     11  O   UNL     1     -43.986 -19.935 -26.505  0.00  0.00    +0.000 OA
ATOM     12  N   UNL     1     -43.552 -17.882 -27.356  0.00  0.00    +0.000 N 
ATOM     13  C   UNL     1     -43.506 -16.527 -27.233  0.00  0.00    +0.000 A 
ATOM     14  O   UNL     1     -43.118 -15.826 -28.203  0.00  0.00    +0.000 OA
ATOM     15  N   UNL     1     -43.877 -15.922 -26.074  0.00  0.00    +0.000 NA
ATOM     16  C   UNL     1     -44.303 -16.648 -25.007  0.00  0.00    +0.000 A 
ATOM     17  N   UNL     1     -44.679 -16.046 -23.837  0.00  0.00    +0.000 N 
ATOM     18  C   UNL     1     -46.303 -16.260 -19.215  0.00  0.00    +0.000 C 
ATOM     19  H   UNL     1     -43.278 -18.292 -28.207  0.00  0.00    +0.000 HD
ENDROOT
BRANCH  17  20
ATOM     20  C   UNL     1     -44.637 -14.583 -23.743  0.00  0.00    +0.000 C 
BRANCH  20  21
ATOM     21  C   UNL     1     -45.914 -13.971 -24.302  0.00  0.00    +0.000 C 
BRANCH  21  22
ATOM     22  O   UNL     1     -46.744 -14.975 -24.810  0.00  0.00    +0.000 OA
ATOM     23  H   UNL     1     -46.523 -15.137 -25.741  0.00  0.00    +0.000 HD
ENDBRANCH  21  22
BRANCH  21  24
ATOM     24  C   UNL     1     -45.569 -12.947 -25.386  0.00  0.00    +0.000 C 
BRANCH  24  25
ATOM     25  O   UNL     1     -44.186 -12.842 -25.564  0.00  0.00    +0.000 OA
ATOM     26  H   UNL     1     -43.897 -11.947 -25.331  0.00  0.00    +0.000 HD
ENDBRANCH  24  25
BRANCH  24  27
ATOM     27  C   UNL     1     -46.271 -13.214 -26.720  0.00  0.00    +0.000 C 
BRANCH  27  28
ATOM     28  O   UNL     1     -45.420 -13.914 -27.578  0.00  0.00    +0.000 OA
ATOM     29  H   UNL     1     -45.562 -14.867 -27.467  0.00  0.00    +0.000 HD
ENDBRANCH  27  28
BRANCH  27  30
ATOM     30  C   UNL     1     -46.760 -11.938 -27.388  0.00  0.00    +0.000 C 
BRANCH  30  31
ATOM     31  O   UNL     1     -47.715 -11.318 -26.583  0.00  0.00    +0.000 OA
ATOM     32  H   UNL     1     -48.510 -11.870 -26.539  0.00  0.00    +0.000 HD
ENDBRANCH  30  31
ENDBRANCH  27  30
ENDBRANCH  24  27
ENDBRANCH  21  24
ENDBRANCH  20  21
ENDBRANCH  17  20
TORSDOF 9
ENDMDL
