MODEL 1
REMARK VINA RESULT:      -6.5      0.000      0.000
REMARK  Name = ZINC000021788064 ZINC21788064
REMARK  6 active torsions:
REMARK  status: ('A' for Active; 'I' for Inactive)
REMARK    1  A    between atoms: N_5  and  C_14
REMARK    2  A    between atoms: C_12  and  C_21
REMARK    3  A    between atoms: C_24  and  O_29
REMARK    4  A    between atoms: C_25  and  O_27
REMARK    5  A    between atoms: O_29  and  C_30
REMARK    6  A    between atoms: C_30  and  C_31
REMARK                            x       y       z     vdW  Elec       q    Type
REMARK                         _______ _______ _______ _____ _____    ______ ____
ROOT
ATOM      1  C   UNL     1     -42.473  -7.308 -29.951  0.00  0.00    +0.000 C 
ATOM      2  C   UNL     1     -43.282  -6.324 -30.723  0.00  0.00    +0.000 A 
ATOM      3  C   UNL     1     -44.349  -6.589 -31.583  0.00  0.00    +0.000 A 
ATOM      4  C   UNL     1     -44.638  -5.329 -32.125  0.00  0.00    +0.000 A 
ATOM      5  N   UNL     1     -43.830  -4.407 -31.549  0.00  0.00    +0.000 N 
ATOM      6  N   UNL     1     -43.002  -5.010 -30.713  0.00  0.00    +0.000 NA
ATOM      7  N   UNL     1     -45.565  -4.988 -33.172  0.00  0.00    +0.000 N 
ATOM      8  C   UNL     1     -46.292  -5.824 -34.077  0.00  0.00    +0.000 C 
ATOM      9  O   UNL     1     -47.062  -5.289 -34.916  0.00  0.00    +0.000 OA
ATOM     10  C   UNL     1     -46.167  -7.299 -34.069  0.00  0.00    +0.000 C 
ATOM     11  S   UNL     1     -46.656  -7.900 -32.444  0.00  0.00    +0.000 S 
ATOM     12  C   UNL     1     -44.912  -7.955 -31.946  0.00  0.00    +0.000 C 
ATOM     13  H   UNL     1     -45.726  -4.023 -33.282  0.00  0.00    +0.000 HD
ENDROOT
BRANCH   5  14
ATOM     14  C   UNL     1     -43.788  -2.985 -31.787  0.00  0.00    +0.000 A 
ATOM     15  C   UNL     1     -44.919  -2.174 -31.599  0.00  0.00    +0.000 A 
ATOM     16  C   UNL     1     -44.854  -0.796 -31.822  0.00  0.00    +0.000 A 
ATOM     17  C   UNL     1     -43.655  -0.211 -32.234  0.00  0.00    +0.000 A 
ATOM     18  C   UNL     1     -42.521  -1.005 -32.421  0.00  0.00    +0.000 A 
ATOM     19  C   UNL     1     -42.587  -2.383 -32.197  0.00  0.00    +0.000 A 
ATOM     20 CL   UNL     1     -41.016  -0.274 -32.938  0.00  0.00    +0.000 Cl
ENDBRANCH   5  14
BRANCH  12  21
ATOM     21  C   UNL     1     -44.753  -8.986 -30.869  0.00  0.00    +0.000 A 
ATOM     22  C   UNL     1     -43.995 -10.146 -31.079  0.00  0.00    +0.000 A 
ATOM     23  C   UNL     1     -43.866 -11.092 -30.062  0.00  0.00    +0.000 A 
ATOM     24  C   UNL     1     -44.492 -10.892 -28.821  0.00  0.00    +0.000 A 
ATOM     25  C   UNL     1     -45.248  -9.729 -28.604  0.00  0.00    +0.000 A 
ATOM     26  C   UNL     1     -45.373  -8.782 -29.633  0.00  0.00    +0.000 A 
BRANCH  25  27
ATOM     27  O   UNL     1     -45.866  -9.536 -27.363  0.00  0.00    +0.000 OA
ATOM     28  C   UNL     1     -47.061  -8.784 -27.207  0.00  0.00    +0.000 C 
ENDBRANCH  25  27
BRANCH  24  29
ATOM     29  O   UNL     1     -44.373 -11.832 -27.788  0.00  0.00    +0.000 OA
BRANCH  29  30
ATOM     30  C   UNL     1     -45.124 -13.042 -27.741  0.00  0.00    +0.000 C 
BRANCH  30  31
ATOM     31  C   UNL     1     -46.521 -12.765 -27.303  0.00  0.00    +0.000 C 
ATOM     32  O   UNL     1     -46.768 -12.538 -26.090  0.00  0.00    +0.000 OA
ATOM     33  N   UNL     1     -47.581 -12.777 -28.253  0.00  0.00    +0.000 N 
ATOM     34  H   UNL     1     -47.388 -12.954 -29.202  0.00  0.00    +0.000 HD
ATOM     35  H   UNL     1     -48.505 -12.607 -27.961  0.00  0.00    +0.000 HD
ENDBRANCH  30  31
ENDBRANCH  29  30
ENDBRANCH  24  29
ENDBRANCH  12  21
TORSDOF 6
ENDMDL
MODEL 2
REMARK VINA RESULT:      -6.4      4.345      8.703
REMARK  Name = ZINC000021788064 ZINC21788064
REMARK  6 active torsions:
REMARK  status: ('A' for Active; 'I' for Inactive)
REMARK    1  A    between atoms: N_5  and  C_14
REMARK    2  A    between atoms: C_12  and  C_21
REMARK    3  A    between atoms: C_24  and  O_29
REMARK    4  A    between atoms: C_25  and  O_27
REMARK    5  A    between atoms: O_29  and  C_30
REMARK    6  A    between atoms: C_30  and  C_31
REMARK                            x       y       z     vdW  Elec       q    Type
REMARK                         _______ _______ _______ _____ _____    ______ ____
ROOT
ATOM      1  C   UNL     1     -47.086  -4.354 -28.357  0.00  0.00    +0.000 C 
ATOM      2  C   UNL     1     -46.775  -5.501 -27.458  0.00  0.00    +0.000 A 
ATOM      3  C   UNL     1     -46.470  -6.812 -27.828  0.00  0.00    +0.000 A 
ATOM      4  C   UNL     1     -46.400  -7.479 -26.596  0.00  0.00    +0.000 A 
ATOM      5  N   UNL     1     -46.582  -6.581 -25.599  0.00  0.00    +0.000 N 
ATOM      6  N   UNL     1     -46.822  -5.389 -26.120  0.00  0.00    +0.000 NA
ATOM      7  N   UNL     1     -46.240  -8.886 -26.341  0.00  0.00    +0.000 N 
ATOM      8  C   UNL     1     -46.305 -10.005 -27.229  0.00  0.00    +0.000 C 
ATOM      9  O   UNL     1     -46.122 -11.161 -26.768  0.00  0.00    +0.000 OA
ATOM     10  C   UNL     1     -46.589  -9.855 -28.674  0.00  0.00    +0.000 C 
ATOM     11  S   UNL     1     -45.314  -8.809 -29.396  0.00  0.00    +0.000 S 
ATOM     12  C   UNL     1     -46.413  -7.372 -29.241  0.00  0.00    +0.000 C 
ATOM     13  H   UNL     1     -46.054  -9.116 -25.401  0.00  0.00    +0.000 HD
ENDROOT
BRANCH   5  14
ATOM     14  C   UNL     1     -46.575  -6.814 -24.176  0.00  0.00    +0.000 A 
ATOM     15  C   UNL     1     -47.702  -7.325 -23.510  0.00  0.00    +0.000 A 
ATOM     16  C   UNL     1     -47.670  -7.557 -22.132  0.00  0.00    +0.000 A 
ATOM     17  C   UNL     1     -46.511  -7.283 -21.403  0.00  0.00    +0.000 A 
ATOM     18  C   UNL     1     -45.383  -6.779 -22.054  0.00  0.00    +0.000 A 
ATOM     19  C   UNL     1     -45.414  -6.548 -23.432  0.00  0.00    +0.000 A 
ATOM     20 CL   UNL     1     -43.928  -6.435 -21.143  0.00  0.00    +0.000 Cl
ENDBRANCH   5  14
BRANCH  12  21
ATOM     21  C   UNL     1     -46.033  -6.363 -30.283  0.00  0.00    +0.000 A 
ATOM     22  C   UNL     1     -46.963  -5.906 -31.225  0.00  0.00    +0.000 A 
ATOM     23  C   UNL     1     -46.584  -4.969 -32.186  0.00  0.00    +0.000 A 
ATOM     24  C   UNL     1     -45.269  -4.477 -32.220  0.00  0.00    +0.000 A 
ATOM     25  C   UNL     1     -44.335  -4.928 -31.274  0.00  0.00    +0.000 A 
ATOM     26  C   UNL     1     -44.725  -5.871 -30.309  0.00  0.00    +0.000 A 
BRANCH  25  27
ATOM     27  O   UNL     1     -43.028  -4.429 -31.312  0.00  0.00    +0.000 OA
ATOM     28  C   UNL     1     -41.883  -5.262 -31.188  0.00  0.00    +0.000 C 
ENDBRANCH  25  27
BRANCH  24  29
ATOM     29  O   UNL     1     -44.870  -3.536 -33.179  0.00  0.00    +0.000 OA
BRANCH  29  30
ATOM     30  C   UNL     1     -45.269  -2.169 -33.147  0.00  0.00    +0.000 C 
BRANCH  30  31
ATOM     31  C   UNL     1     -44.708  -1.495 -31.941  0.00  0.00    +0.000 C 
ATOM     32  O   UNL     1     -45.470  -1.150 -31.002  0.00  0.00    +0.000 OA
ATOM     33  N   UNL     1     -43.314  -1.226 -31.860  0.00  0.00    +0.000 N 
ATOM     34  H   UNL     1     -42.716  -1.497 -32.594  0.00  0.00    +0.000 HD
ATOM     35  H   UNL     1     -42.946  -0.769 -31.069  0.00  0.00    +0.000 HD
ENDBRANCH  30  31
ENDBRANCH  29  30
ENDBRANCH  24  29
ENDBRANCH  12  21
TORSDOF 6
ENDMDL
MODEL 3
REMARK VINA RESULT:      -6.2      1.434      2.152
REMARK  Name = ZINC000021788064 ZINC21788064
REMARK  6 active torsions:
REMARK  status: ('A' for Active; 'I' for Inactive)
REMARK    1  A    between atoms: N_5  and  C_14
REMARK    2  A    between atoms: C_12  and  C_21
REMARK    3  A    between atoms: C_24  and  O_29
REMARK    4  A    between atoms: C_25  and  O_27
REMARK    5  A    between atoms: O_29  and  C_30
REMARK    6  A    between atoms: C_30  and  C_31
REMARK                            x       y       z     vdW  Elec       q    Type
REMARK                         _______ _______ _______ _____ _____    ______ ____
ROOT
ATOM      1  C   UNL     1     -43.990  -7.494 -28.631  0.00  0.00    +0.000 C 
ATOM      2  C   UNL     1     -44.382  -6.626 -29.776  0.00  0.00    +0.000 A 
ATOM      3  C   UNL     1     -45.160  -6.978 -30.881  0.00  0.00    +0.000 A 
ATOM      4  C   UNL     1     -45.097  -5.833 -31.689  0.00  0.00    +0.000 A 
ATOM      5  N   UNL     1     -44.388  -4.878 -31.041  0.00  0.00    +0.000 N 
ATOM      6  N   UNL     1     -43.945  -5.362 -29.893  0.00  0.00    +0.000 NA
ATOM      7  N   UNL     1     -45.604  -5.641 -33.022  0.00  0.00    +0.000 N 
ATOM      8  C   UNL     1     -46.124  -6.584 -33.963  0.00  0.00    +0.000 C 
ATOM      9  O   UNL     1     -46.520  -6.172 -35.083  0.00  0.00    +0.000 OA
ATOM     10  C   UNL     1     -46.207  -8.033 -33.671  0.00  0.00    +0.000 C 
ATOM     11  S   UNL     1     -47.247  -8.258 -32.218  0.00  0.00    +0.000 S 
ATOM     12  C   UNL     1     -45.763  -8.343 -31.176  0.00  0.00    +0.000 C 
ATOM     13  H   UNL     1     -45.592  -4.708 -33.337  0.00  0.00    +0.000 HD
ENDROOT
BRANCH   5  14
ATOM     14  C   UNL     1     -44.083  -3.540 -31.485  0.00  0.00    +0.000 A 
ATOM     15  C   UNL     1     -45.051  -2.521 -31.466  0.00  0.00    +0.000 A 
ATOM     16  C   UNL     1     -44.732  -1.227 -31.887  0.00  0.00    +0.000 A 
ATOM     17  C   UNL     1     -43.441  -0.935 -32.330  0.00  0.00    +0.000 A 
ATOM     18  C   UNL     1     -42.468  -1.937 -32.349  0.00  0.00    +0.000 A 
ATOM     19  C   UNL     1     -42.787  -3.230 -31.927  0.00  0.00    +0.000 A 
ATOM     20 CL   UNL     1     -40.848  -1.573 -32.903  0.00  0.00    +0.000 Cl
ENDBRANCH   5  14
BRANCH  12  21
ATOM     21  C   UNL     1     -46.083  -9.147 -29.951  0.00  0.00    +0.000 A 
ATOM     22  C   UNL     1     -46.935  -8.648 -28.958  0.00  0.00    +0.000 A 
ATOM     23  C   UNL     1     -47.214  -9.414 -27.826  0.00  0.00    +0.000 A 
ATOM     24  C   UNL     1     -46.645 -10.689 -27.670  0.00  0.00    +0.000 A 
ATOM     25  C   UNL     1     -45.794 -11.194 -28.666  0.00  0.00    +0.000 A 
ATOM     26  C   UNL     1     -45.519 -10.417 -29.803  0.00  0.00    +0.000 A 
BRANCH  25  27
ATOM     27  O   UNL     1     -45.234 -12.467 -28.506  0.00  0.00    +0.000 OA
ATOM     28  C   UNL     1     -45.433 -13.518 -29.441  0.00  0.00    +0.000 C 
ENDBRANCH  25  27
BRANCH  24  29
ATOM     29  O   UNL     1     -46.914 -11.471 -26.540  0.00  0.00    +0.000 OA
BRANCH  29  30
ATOM     30  C   UNL     1     -46.051 -11.535 -25.409  0.00  0.00    +0.000 C 
BRANCH  30  31
ATOM     31  C   UNL     1     -45.883 -12.949 -24.967  0.00  0.00    +0.000 C 
ATOM     32  O   UNL     1     -45.564 -13.202 -23.776  0.00  0.00    +0.000 OA
ATOM     33  N   UNL     1     -46.066 -14.012 -25.894  0.00  0.00    +0.000 N 
ATOM     34  H   UNL     1     -46.317 -13.815 -26.826  0.00  0.00    +0.000 HD
ATOM     35  H   UNL     1     -45.943 -14.945 -25.604  0.00  0.00    +0.000 HD
ENDBRANCH  30  31
ENDBRANCH  29  30
ENDBRANCH  24  29
ENDBRANCH  12  21
TORSDOF 6
ENDMDL
