MODEL 1
REMARK VINA RESULT:      -6.4      0.000      0.000
REMARK  Name = ZINC000005372514 ZINC05372514 PubChem-92261926
REMARK  9 active torsions:
REMARK  status: ('A' for Active; 'I' for Inactive)
REMARK    1  A    between atoms: N_14  and  C_20
REMARK    2  A    between atoms: C_20  and  C_21
REMARK    3  A    between atoms: C_21  and  O_22
REMARK    4  A    between atoms: C_21  and  C_24
REMARK    5  A    between atoms: C_24  and  O_25
REMARK    6  A    between atoms: C_24  and  C_27
REMARK    7  A    between atoms: C_27  and  O_28
REMARK    8  A    between atoms: C_27  and  C_30
REMARK    9  A    between atoms: C_30  and  O_31
REMARK                            x       y       z     vdW  Elec       q    Type
REMARK                         _______ _______ _______ _____ _____    ______ ____
ROOT
ATOM      1  C   UNL     1     -47.055  -3.665 -23.501  0.00  0.00    +0.000 C 
ATOM      2  C   UNL     1     -47.073  -4.113 -24.923  0.00  0.00    +0.000 A 
ATOM      3  C   UNL     1     -46.780  -5.448 -25.209  0.00  0.00    +0.000 A 
ATOM      4  C   UNL     1     -46.787  -5.910 -26.528  0.00  0.00    +0.000 A 
ATOM      5  C   UNL     1     -46.484  -7.244 -26.777  0.00  0.00    +0.000 A 
ATOM      6  C   UNL     1     -46.481  -7.719 -28.084  0.00  0.00    +0.000 A 
ATOM      7  C   UNL     1     -46.178  -9.049 -28.399  0.00  0.00    +0.000 A 
ATOM      8  O   UNL     1     -45.899  -9.879 -27.493  0.00  0.00    +0.000 OA
ATOM      9  N   UNL     1     -46.184  -9.453 -29.698  0.00  0.00    +0.000 N 
ATOM     10  C   UNL     1     -46.474  -8.613 -30.730  0.00  0.00    +0.000 A 
ATOM     11  O   UNL     1     -46.461  -9.047 -31.910  0.00  0.00    +0.000 OA
ATOM     12  C   UNL     1     -46.787  -7.273 -30.492  0.00  0.00    +0.000 A 
ATOM     13  C   UNL     1     -46.808  -6.781 -29.182  0.00  0.00    +0.000 A 
ATOM     14  N   UNL     1     -47.111  -5.474 -28.896  0.00  0.00    +0.000 N 
ATOM     15  C   UNL     1     -47.097  -5.028 -27.594  0.00  0.00    +0.000 A 
ATOM     16  C   UNL     1     -47.385  -3.686 -27.288  0.00  0.00    +0.000 A 
ATOM     17  C   UNL     1     -47.377  -3.225 -25.970  0.00  0.00    +0.000 A 
ATOM     18  C   UNL     1     -47.694  -1.792 -25.710  0.00  0.00    +0.000 C 
ATOM     19  H   UNL     1     -45.968 -10.392 -29.901  0.00  0.00    +0.000 HD
ENDROOT
BRANCH  14  20
ATOM     20  C   UNL     1     -47.456  -4.553 -29.986  0.00  0.00    +0.000 C 
BRANCH  20  21
ATOM     21  C   UNL     1     -46.194  -3.959 -30.614  0.00  0.00    +0.000 C 
BRANCH  21  22
ATOM     22  O   UNL     1     -46.088  -2.608 -30.283  0.00  0.00    +0.000 OA
ATOM     23  H   UNL     1     -45.243  -2.260 -30.609  0.00  0.00    +0.000 HD
ENDBRANCH  21  22
BRANCH  21  24
ATOM     24  C   UNL     1     -46.177  -4.114 -32.138  0.00  0.00    +0.000 C 
BRANCH  24  25
ATOM     25  O   UNL     1     -44.986  -4.697 -32.577  0.00  0.00    +0.000 OA
ATOM     26  H   UNL     1     -44.394  -4.007 -32.916  0.00  0.00    +0.000 HD
ENDBRANCH  24  25
BRANCH  24  27
ATOM     27  C   UNL     1     -46.450  -2.816 -32.905  0.00  0.00    +0.000 C 
BRANCH  27  28
ATOM     28  O   UNL     1     -47.493  -2.957 -33.824  0.00  0.00    +0.000 OA
ATOM     29  H   UNL     1     -47.220  -3.561 -34.533  0.00  0.00    +0.000 HD
ENDBRANCH  27  28
BRANCH  27  30
ATOM     30  C   UNL     1     -45.200  -2.256 -33.576  0.00  0.00    +0.000 C 
BRANCH  30  31
ATOM     31  O   UNL     1     -44.232  -1.918 -32.629  0.00  0.00    +0.000 OA
ATOM     32  H   UNL     1     -44.325  -0.982 -32.390  0.00  0.00    +0.000 HD
ENDBRANCH  30  31
ENDBRANCH  27  30
ENDBRANCH  24  27
ENDBRANCH  21  24
ENDBRANCH  20  21
ENDBRANCH  14  20
TORSDOF 9
ENDMDL
MODEL 2
REMARK VINA RESULT:      -6.2      2.802      6.347
REMARK  Name = ZINC000005372514 ZINC05372514 PubChem-92261926
REMARK  9 active torsions:
REMARK  status: ('A' for Active; 'I' for Inactive)
REMARK    1  A    between atoms: N_14  and  C_20
REMARK    2  A    between atoms: C_20  and  C_21
REMARK    3  A    between atoms: C_21  and  O_22
REMARK    4  A    between atoms: C_21  and  C_24
REMARK    5  A    between atoms: C_24  and  O_25
REMARK    6  A    between atoms: C_24  and  C_27
REMARK    7  A    between atoms: C_27  and  O_28
REMARK    8  A    between atoms: C_27  and  C_30
REMARK    9  A    between atoms: C_30  and  O_31
REMARK                            x       y       z     vdW  Elec       q    Type
REMARK                         _______ _______ _______ _____ _____    ______ ____
ROOT
ATOM      1  C   UNL     1     -45.991  -9.872 -36.113  0.00  0.00    +0.000 C 
ATOM      2  C   UNL     1     -46.166  -8.673 -35.244  0.00  0.00    +0.000 A 
ATOM      3  C   UNL     1     -46.413  -8.860 -33.883  0.00  0.00    +0.000 A 
ATOM      4  C   UNL     1     -46.583  -7.764 -33.033  0.00  0.00    +0.000 A 
ATOM      5  C   UNL     1     -46.834  -7.988 -31.684  0.00  0.00    +0.000 A 
ATOM      6  C   UNL     1     -47.010  -6.908 -30.826  0.00  0.00    +0.000 A 
ATOM      7  C   UNL     1     -47.273  -7.069 -29.461  0.00  0.00    +0.000 A 
ATOM      8  O   UNL     1     -47.354  -8.219 -28.950  0.00  0.00    +0.000 OA
ATOM      9  N   UNL     1     -47.444  -5.974 -28.672  0.00  0.00    +0.000 N 
ATOM     10  C   UNL     1     -47.373  -4.702 -29.152  0.00  0.00    +0.000 A 
ATOM     11  O   UNL     1     -47.543  -3.730 -28.372  0.00  0.00    +0.000 OA
ATOM     12  C   UNL     1     -47.113  -4.464 -30.504  0.00  0.00    +0.000 A 
ATOM     13  C   UNL     1     -46.920  -5.538 -31.380  0.00  0.00    +0.000 A 
ATOM     14  N   UNL     1     -46.661  -5.357 -32.714  0.00  0.00    +0.000 N 
ATOM     15  C   UNL     1     -46.500  -6.443 -33.544  0.00  0.00    +0.000 A 
ATOM     16  C   UNL     1     -46.255  -6.273 -34.918  0.00  0.00    +0.000 A 
ATOM     17  C   UNL     1     -46.086  -7.370 -35.766  0.00  0.00    +0.000 A 
ATOM     18  C   UNL     1     -45.826  -7.123 -37.212  0.00  0.00    +0.000 C 
ATOM     19  H   UNL     1     -47.628  -6.106 -27.714  0.00  0.00    +0.000 HD
ENDROOT
BRANCH  14  20
ATOM     20  C   UNL     1     -46.550  -3.996 -33.255  0.00  0.00    +0.000 C 
BRANCH  20  21
ATOM     21  C   UNL     1     -45.083  -3.587 -33.399  0.00  0.00    +0.000 C 
BRANCH  21  22
ATOM     22  O   UNL     1     -44.306  -4.261 -32.457  0.00  0.00    +0.000 OA
ATOM     23  H   UNL     1     -43.816  -3.618 -31.921  0.00  0.00    +0.000 HD
ENDBRANCH  21  22
BRANCH  21  24
ATOM     24  C   UNL     1     -44.883  -2.077 -33.239  0.00  0.00    +0.000 C 
BRANCH  24  25
ATOM     25  O   UNL     1     -44.239  -1.528 -34.349  0.00  0.00    +0.000 OA
ATOM     26  H   UNL     1     -43.279  -1.542 -34.206  0.00  0.00    +0.000 HD
ENDBRANCH  24  25
BRANCH  24  27
ATOM     27  C   UNL     1     -44.163  -1.671 -31.949  0.00  0.00    +0.000 C 
BRANCH  27  28
ATOM     28  O   UNL     1     -44.841  -0.659 -31.264  0.00  0.00    +0.000 OA
ATOM     29  H   UNL     1     -45.796  -0.824 -31.305  0.00  0.00    +0.000 HD
ENDBRANCH  27  28
BRANCH  27  30
ATOM     30  C   UNL     1     -42.705  -1.292 -32.185  0.00  0.00    +0.000 C 
BRANCH  30  31
ATOM     31  O   UNL     1     -41.866  -2.395 -32.017  0.00  0.00    +0.000 OA
ATOM     32  H   UNL     1     -42.399  -3.178 -31.810  0.00  0.00    +0.000 HD
ENDBRANCH  30  31
ENDBRANCH  27  30
ENDBRANCH  24  27
ENDBRANCH  21  24
ENDBRANCH  20  21
ENDBRANCH  14  20
TORSDOF 9
ENDMDL
MODEL 3
REMARK VINA RESULT:      -5.8      1.731      2.765
REMARK  Name = ZINC000005372514 ZINC05372514 PubChem-92261926
REMARK  9 active torsions:
REMARK  status: ('A' for Active; 'I' for Inactive)
REMARK    1  A    between atoms: N_14  and  C_20
REMARK    2  A    between atoms: C_20  and  C_21
REMARK    3  A    between atoms: C_21  and  O_22
REMARK    4  A    between atoms: C_21  and  C_24
REMARK    5  A    between atoms: C_24  and  O_25
REMARK    6  A    between atoms: C_24  and  C_27
REMARK    7  A    between atoms: C_27  and  O_28
REMARK    8  A    between atoms: C_27  and  C_30
REMARK    9  A    between atoms: C_30  and  O_31
REMARK                            x       y       z     vdW  Elec       q    Type
REMARK                         _______ _______ _______ _____ _____    ______ ____
ROOT
ATOM      1  C   UNL     1     -46.601  -6.066 -25.309  0.00  0.00    +0.000 C 
ATOM      2  C   UNL     1     -46.631  -5.818 -26.779  0.00  0.00    +0.000 A 
ATOM      3  C   UNL     1     -46.324  -6.870 -27.643  0.00  0.00    +0.000 A 
ATOM      4  C   UNL     1     -46.341  -6.681 -29.028  0.00  0.00    +0.000 A 
ATOM      5  C   UNL     1     -46.024  -7.749 -29.859  0.00  0.00    +0.000 A 
ATOM      6  C   UNL     1     -46.031  -7.577 -31.239  0.00  0.00    +0.000 A 
ATOM      7  C   UNL     1     -45.713  -8.611 -32.127  0.00  0.00    +0.000 A 
ATOM      8  O   UNL     1     -45.411  -9.758 -31.700  0.00  0.00    +0.000 OA
ATOM      9  N   UNL     1     -45.730  -8.380 -33.467  0.00  0.00    +0.000 N 
ATOM     10  C   UNL     1     -46.045  -7.167 -34.002  0.00  0.00    +0.000 A 
ATOM     11  O   UNL     1     -46.041  -7.015 -35.250  0.00  0.00    +0.000 OA
ATOM     12  C   UNL     1     -46.373  -6.088 -33.177  0.00  0.00    +0.000 A 
ATOM     13  C   UNL     1     -46.384  -6.247 -31.787  0.00  0.00    +0.000 A 
ATOM     14  N   UNL     1     -46.701  -5.220 -30.935  0.00  0.00    +0.000 N 
ATOM     15  C   UNL     1     -46.677  -5.416 -29.573  0.00  0.00    +0.000 A 
ATOM     16  C   UNL     1     -46.979  -4.366 -28.687  0.00  0.00    +0.000 A 
ATOM     17  C   UNL     1     -46.961  -4.557 -27.304  0.00  0.00    +0.000 A 
ATOM     18  C   UNL     1     -47.294  -3.405 -26.419  0.00  0.00    +0.000 C 
ATOM     19  H   UNL     1     -45.504  -9.119 -34.077  0.00  0.00    +0.000 HD
ENDROOT
BRANCH  14  20
ATOM     20  C   UNL     1     -47.073  -3.910 -31.484  0.00  0.00    +0.000 C 
BRANCH  20  21
ATOM     21  C   UNL     1     -45.842  -3.013 -31.627  0.00  0.00    +0.000 C 
BRANCH  21  22
ATOM     22  O   UNL     1     -45.810  -2.079 -30.591  0.00  0.00    +0.000 OA
ATOM     23  H   UNL     1     -44.928  -2.074 -30.188  0.00  0.00    +0.000 HD
ENDBRANCH  21  22
BRANCH  21  24
ATOM     24  C   UNL     1     -45.810  -2.283 -32.974  0.00  0.00    +0.000 C 
BRANCH  24  25
ATOM     25  O   UNL     1     -46.731  -2.829 -33.870  0.00  0.00    +0.000 OA
ATOM     26  H   UNL     1     -46.286  -3.029 -34.709  0.00  0.00    +0.000 HD
ENDBRANCH  24  25
BRANCH  24  27
ATOM     27  C   UNL     1     -44.420  -2.207 -33.615  0.00  0.00    +0.000 C 
BRANCH  27  28
ATOM     28  O   UNL     1     -43.616  -3.291 -33.257  0.00  0.00    +0.000 OA
ATOM     29  H   UNL     1     -43.332  -3.761 -34.057  0.00  0.00    +0.000 HD
ENDBRANCH  27  28
BRANCH  27  30
ATOM     30  C   UNL     1     -43.716  -0.884 -33.332  0.00  0.00    +0.000 C 
BRANCH  30  31
ATOM     31  O   UNL     1     -43.839  -0.527 -31.988  0.00  0.00    +0.000 OA
ATOM     32  H   UNL     1     -43.480   0.364 -31.856  0.00  0.00    +0.000 HD
ENDBRANCH  30  31
ENDBRANCH  27  30
ENDBRANCH  24  27
ENDBRANCH  21  24
ENDBRANCH  20  21
ENDBRANCH  14  20
TORSDOF 9
ENDMDL
