MODEL 1
REMARK VINA RESULT:      -6.2      0.000      0.000
REMARK  Name = ZINC000011565587 ZINC11565587 PubChem-12304941
REMARK  9 active torsions:
REMARK  status: ('A' for Active; 'I' for Inactive)
REMARK    1  A    between atoms: N_9  and  C_20
REMARK    2  A    between atoms: C_20  and  C_21
REMARK    3  A    between atoms: C_21  and  O_22
REMARK    4  A    between atoms: C_21  and  C_24
REMARK    5  A    between atoms: C_24  and  O_25
REMARK    6  A    between atoms: C_24  and  C_27
REMARK    7  A    between atoms: C_27  and  O_28
REMARK    8  A    between atoms: C_27  and  C_30
REMARK    9  A    between atoms: C_30  and  O_31
REMARK                            x       y       z     vdW  Elec       q    Type
REMARK                         _______ _______ _______ _____ _____    ______ ____
ROOT
ATOM      1  C   UNL     1     -45.819  -9.364 -34.536  0.00  0.00    +0.000 C 
ATOM      2  C   UNL     1     -46.023  -8.142 -33.705  0.00  0.00    +0.000 A 
ATOM      3  C   UNL     1     -46.158  -8.286 -32.323  0.00  0.00    +0.000 A 
ATOM      4  C   UNL     1     -46.350  -7.170 -31.506  0.00  0.00    +0.000 A 
ATOM      5  C   UNL     1     -46.410  -5.871 -32.078  0.00  0.00    +0.000 A 
ATOM      6  C   UNL     1     -46.274  -5.741 -33.471  0.00  0.00    +0.000 A 
ATOM      7  C   UNL     1     -46.082  -6.862 -34.283  0.00  0.00    +0.000 A 
ATOM      8  C   UNL     1     -45.943  -6.663 -35.755  0.00  0.00    +0.000 C 
ATOM      9  N   UNL     1     -46.598  -4.769 -31.278  0.00  0.00    +0.000 N 
ATOM     10  C   UNL     1     -46.735  -4.925 -29.928  0.00  0.00    +0.000 A 
ATOM     11  N   UNL     1     -46.930  -3.867 -29.098  0.00  0.00    +0.000 NA
ATOM     12  C   UNL     1     -47.063  -4.045 -27.757  0.00  0.00    +0.000 A 
ATOM     13  O   UNL     1     -47.242  -3.047 -27.011  0.00  0.00    +0.000 OA
ATOM     14  N   UNL     1     -47.003  -5.292 -27.211  0.00  0.00    +0.000 N 
ATOM     15  C   UNL     1     -46.812  -6.404 -27.970  0.00  0.00    +0.000 A 
ATOM     16  O   UNL     1     -46.763  -7.536 -27.420  0.00  0.00    +0.000 OA
ATOM     17  C   UNL     1     -46.671  -6.277 -29.350  0.00  0.00    +0.000 A 
ATOM     18  N   UNL     1     -46.480  -7.341 -30.166  0.00  0.00    +0.000 NA
ATOM     19  H   UNL     1     -47.100  -5.391 -26.237  0.00  0.00    +0.000 HD
ENDROOT
BRANCH   9  20
ATOM     20  C   UNL     1     -46.647  -3.421 -31.854  0.00  0.00    +0.000 C 
BRANCH  20  21
ATOM     21  C   UNL     1     -45.351  -2.667 -31.573  0.00  0.00    +0.000 C 
BRANCH  21  22
ATOM     22  O   UNL     1     -45.526  -1.769 -30.516  0.00  0.00    +0.000 OA
ATOM     23  H   UNL     1     -46.180  -2.126 -29.895  0.00  0.00    +0.000 HD
ENDBRANCH  21  22
BRANCH  21  24
ATOM     24  C   UNL     1     -44.858  -1.949 -32.828  0.00  0.00    +0.000 C 
BRANCH  24  25
ATOM     25  O   UNL     1     -45.573  -2.387 -33.947  0.00  0.00    +0.000 OA
ATOM     26  H   UNL     1     -45.025  -2.999 -34.461  0.00  0.00    +0.000 HD
ENDBRANCH  24  25
BRANCH  24  27
ATOM     27  C   UNL     1     -43.348  -2.093 -33.052  0.00  0.00    +0.000 C 
BRANCH  27  28
ATOM     28  O   UNL     1     -43.066  -2.334 -34.397  0.00  0.00    +0.000 OA
ATOM     29  H   UNL     1     -43.439  -3.192 -34.657  0.00  0.00    +0.000 HD
ENDBRANCH  27  28
BRANCH  27  30
ATOM     30  C   UNL     1     -42.617  -0.840 -32.600  0.00  0.00    +0.000 C 
BRANCH  30  31
ATOM     31  O   UNL     1     -43.465  -0.044 -31.830  0.00  0.00    +0.000 OA
ATOM     32  H   UNL     1     -43.019   0.791 -31.616  0.00  0.00    +0.000 HD
ENDBRANCH  30  31
ENDBRANCH  27  30
ENDBRANCH  24  27
ENDBRANCH  21  24
ENDBRANCH  20  21
ENDBRANCH   9  20
TORSDOF 9
ENDMDL
MODEL 2
REMARK VINA RESULT:      -6.0     11.747     15.809
REMARK  Name = ZINC000011565587 ZINC11565587 PubChem-12304941
REMARK  9 active torsions:
REMARK  status: ('A' for Active; 'I' for Inactive)
REMARK    1  A    between atoms: N_9  and  C_20
REMARK    2  A    between atoms: C_20  and  C_21
REMARK    3  A    between atoms: C_21  and  O_22
REMARK    4  A    between atoms: C_21  and  C_24
REMARK    5  A    between atoms: C_24  and  O_25
REMARK    6  A    between atoms: C_24  and  C_27
REMARK    7  A    between atoms: C_27  and  O_28
REMARK    8  A    between atoms: C_27  and  C_30
REMARK    9  A    between atoms: C_30  and  O_31
REMARK                            x       y       z     vdW  Elec       q    Type
REMARK                         _______ _______ _______ _____ _____    ______ ____
ROOT
ATOM      1  C   UNL     1     -46.566 -15.547 -18.462  0.00  0.00    +0.000 C 
ATOM      2  C   UNL     1     -46.233 -15.826 -19.890  0.00  0.00    +0.000 A 
ATOM      3  C   UNL     1     -46.305 -14.780 -20.812  0.00  0.00    +0.000 A 
ATOM      4  C   UNL     1     -46.002 -14.996 -22.158  0.00  0.00    +0.000 A 
ATOM      5  C   UNL     1     -45.615 -16.289 -22.602  0.00  0.00    +0.000 A 
ATOM      6  C   UNL     1     -45.548 -17.332 -21.663  0.00  0.00    +0.000 A 
ATOM      7  C   UNL     1     -45.853 -17.110 -20.317  0.00  0.00    +0.000 A 
ATOM      8  C   UNL     1     -45.763 -18.255 -19.365  0.00  0.00    +0.000 C 
ATOM      9  N   UNL     1     -45.315 -16.506 -23.926  0.00  0.00    +0.000 N 
ATOM     10  C   UNL     1     -45.395 -15.476 -24.818  0.00  0.00    +0.000 A 
ATOM     11  N   UNL     1     -45.116 -15.644 -26.137  0.00  0.00    +0.000 NA
ATOM     12  C   UNL     1     -45.202 -14.604 -27.009  0.00  0.00    +0.000 A 
ATOM     13  O   UNL     1     -44.937 -14.787 -28.226  0.00  0.00    +0.000 OA
ATOM     14  N   UNL     1     -45.571 -13.365 -26.579  0.00  0.00    +0.000 N 
ATOM     15  C   UNL     1     -45.870 -13.111 -25.277  0.00  0.00    +0.000 A 
ATOM     16  O   UNL     1     -46.207 -11.949 -24.927  0.00  0.00    +0.000 OA
ATOM     17  C   UNL     1     -45.798 -14.142 -24.343  0.00  0.00    +0.000 A 
ATOM     18  N   UNL     1     -46.083 -13.962 -23.032  0.00  0.00    +0.000 NA
ATOM     19  H   UNL     1     -45.624 -12.630 -27.232  0.00  0.00    +0.000 HD
ENDROOT
BRANCH   9  20
ATOM     20  C   UNL     1     -44.899 -17.832 -24.395  0.00  0.00    +0.000 C 
BRANCH  20  21
ATOM     21  C   UNL     1     -43.403 -18.037 -24.180  0.00  0.00    +0.000 C 
BRANCH  21  22
ATOM     22  O   UNL     1     -42.675 -17.477 -25.233  0.00  0.00    +0.000 OA
ATOM     23  H   UNL     1     -42.329 -18.185 -25.798  0.00  0.00    +0.000 HD
ENDBRANCH  21  22
BRANCH  21  24
ATOM     24  C   UNL     1     -43.076 -19.520 -24.012  0.00  0.00    +0.000 C 
BRANCH  24  25
ATOM     25  O   UNL     1     -44.199 -20.297 -24.306  0.00  0.00    +0.000 OA
ATOM     26  H   UNL     1     -44.018 -20.846 -25.084  0.00  0.00    +0.000 HD
ENDBRANCH  24  25
BRANCH  24  27
ATOM     27  C   UNL     1     -42.519 -19.863 -22.626  0.00  0.00    +0.000 C 
BRANCH  27  28
ATOM     28  O   UNL     1     -43.554 -20.079 -21.715  0.00  0.00    +0.000 OA
ATOM     29  H   UNL     1     -43.732 -19.259 -21.226  0.00  0.00    +0.000 HD
ENDBRANCH  27  28
BRANCH  27  30
ATOM     30  C   UNL     1     -41.638 -21.099 -22.691  0.00  0.00    +0.000 C 
BRANCH  30  31
ATOM     31  O   UNL     1     -42.391 -22.201 -23.099  0.00  0.00    +0.000 OA
ATOM     32  H   UNL     1     -41.798 -22.946 -23.287  0.00  0.00    +0.000 HD
ENDBRANCH  30  31
ENDBRANCH  27  30
ENDBRANCH  24  27
ENDBRANCH  21  24
ENDBRANCH  20  21
ENDBRANCH   9  20
TORSDOF 9
ENDMDL
MODEL 3
REMARK VINA RESULT:      -5.9     10.645     14.097
REMARK  Name = ZINC000011565587 ZINC11565587 PubChem-12304941
REMARK  9 active torsions:
REMARK  status: ('A' for Active; 'I' for Inactive)
REMARK    1  A    between atoms: N_9  and  C_20
REMARK    2  A    between atoms: C_20  and  C_21
REMARK    3  A    between atoms: C_21  and  O_22
REMARK    4  A    between atoms: C_21  and  C_24
REMARK    5  A    between atoms: C_24  and  O_25
REMARK    6  A    between atoms: C_24  and  C_27
REMARK    7  A    between atoms: C_27  and  O_28
REMARK    8  A    between atoms: C_27  and  C_30
REMARK    9  A    between atoms: C_30  and  O_31
REMARK                            x       y       z     vdW  Elec       q    Type
REMARK                         _______ _______ _______ _____ _____    ______ ____
ROOT
ATOM      1  C   UNL     1     -46.345 -19.099 -19.438  0.00  0.00    +0.000 C 
ATOM      2  C   UNL     1     -45.910 -18.217 -20.560  0.00  0.00    +0.000 A 
ATOM      3  C   UNL     1     -45.567 -18.805 -21.779  0.00  0.00    +0.000 A 
ATOM      4  C   UNL     1     -45.154 -18.019 -22.857  0.00  0.00    +0.000 A 
ATOM      5  C   UNL     1     -45.080 -16.606 -22.721  0.00  0.00    +0.000 A 
ATOM      6  C   UNL     1     -45.427 -16.029 -21.488  0.00  0.00    +0.000 A 
ATOM      7  C   UNL     1     -45.839 -16.821 -20.412  0.00  0.00    +0.000 A 
ATOM      8  C   UNL     1     -46.195 -16.153 -19.127  0.00  0.00    +0.000 C 
ATOM      9  N   UNL     1     -44.676 -15.828 -23.779  0.00  0.00    +0.000 N 
ATOM     10  C   UNL     1     -44.338 -16.416 -24.965  0.00  0.00    +0.000 A 
ATOM     11  N   UNL     1     -43.925 -15.689 -26.036  0.00  0.00    +0.000 NA
ATOM     12  C   UNL     1     -43.594 -16.296 -27.207  0.00  0.00    +0.000 A 
ATOM     13  O   UNL     1     -43.215 -15.598 -28.184  0.00  0.00    +0.000 OA
ATOM     14  N   UNL     1     -43.668 -17.650 -27.335  0.00  0.00    +0.000 N 
ATOM     15  C   UNL     1     -44.070 -18.451 -26.312  0.00  0.00    +0.000 A 
ATOM     16  O   UNL     1     -44.122 -19.698 -26.478  0.00  0.00    +0.000 OA
ATOM     17  C   UNL     1     -44.419 -17.881 -25.091  0.00  0.00    +0.000 A 
ATOM     18  N   UNL     1     -44.825 -18.617 -24.030  0.00  0.00    +0.000 NA
ATOM     19  H   UNL     1     -43.424 -18.062 -28.195  0.00  0.00    +0.000 HD
ENDROOT
BRANCH   9  20
ATOM     20  C   UNL     1     -44.609 -14.369 -23.657  0.00  0.00    +0.000 C 
BRANCH  20  21
ATOM     21  C   UNL     1     -45.902 -13.725 -24.149  0.00  0.00    +0.000 C 
BRANCH  21  22
ATOM     22  O   UNL     1     -46.725 -14.680 -24.753  0.00  0.00    +0.000 OA
ATOM     23  H   UNL     1     -46.211 -15.188 -25.398  0.00  0.00    +0.000 HD
ENDBRANCH  21  22
BRANCH  21  24
ATOM     24  C   UNL     1     -45.605 -12.571 -25.105  0.00  0.00    +0.000 C 
BRANCH  24  25
ATOM     25  O   UNL     1     -46.161 -11.386 -24.617  0.00  0.00    +0.000 OA
ATOM     26  H   UNL     1     -45.699 -10.627 -25.006  0.00  0.00    +0.000 HD
ENDBRANCH  24  25
BRANCH  24  27
ATOM     27  C   UNL     1     -46.067 -12.842 -26.541  0.00  0.00    +0.000 C 
BRANCH  27  28
ATOM     28  O   UNL     1     -47.318 -12.270 -26.777  0.00  0.00    +0.000 OA
ATOM     29  H   UNL     1     -47.208 -11.444 -27.274  0.00  0.00    +0.000 HD
ENDBRANCH  27  28
BRANCH  27  30
ATOM     30  C   UNL     1     -45.064 -12.292 -27.541  0.00  0.00    +0.000 C 
BRANCH  30  31
ATOM     31  O   UNL     1     -43.798 -12.822 -27.288  0.00  0.00    +0.000 OA
ATOM     32  H   UNL     1     -43.380 -12.330 -26.563  0.00  0.00    +0.000 HD
ENDBRANCH  30  31
ENDBRANCH  27  30
ENDBRANCH  24  27
ENDBRANCH  21  24
ENDBRANCH  20  21
ENDBRANCH   9  20
TORSDOF 9
ENDMDL
