MODEL 1
REMARK VINA RESULT:      -6.3      0.000      0.000
REMARK  Name = ZINC000005011747 PubChem-92247271
REMARK  9 active torsions:
REMARK  status: ('A' for Active; 'I' for Inactive)
REMARK    1  A    between atoms: N_18  and  C_21
REMARK    2  A    between atoms: C_21  and  C_22
REMARK    3  A    between atoms: C_22  and  O_23
REMARK    4  A    between atoms: C_22  and  C_25
REMARK    5  A    between atoms: C_25  and  O_26
REMARK    6  A    between atoms: C_25  and  C_28
REMARK    7  A    between atoms: C_28  and  O_29
REMARK    8  A    between atoms: C_28  and  C_31
REMARK    9  A    between atoms: C_31  and  O_32
REMARK                            x       y       z     vdW  Elec       q    Type
REMARK                         _______ _______ _______ _____ _____    ______ ____
ROOT
ATOM      1  C   UNL     1     -47.592  -1.898 -25.966  0.00  0.00    +0.000 C 
ATOM      2  C   UNL     1     -47.312  -3.350 -26.164  0.00  0.00    +0.000 A 
ATOM      3  C   UNL     1     -47.306  -3.860 -27.462  0.00  0.00    +0.000 A 
ATOM      4  C   UNL     1     -47.052  -5.222 -27.710  0.00  0.00    +0.000 A 
ATOM      5  C   UNL     1     -46.791  -6.082 -26.609  0.00  0.00    +0.000 A 
ATOM      6  C   UNL     1     -46.799  -5.556 -25.308  0.00  0.00    +0.000 A 
ATOM      7  C   UNL     1     -47.056  -4.203 -25.079  0.00  0.00    +0.000 A 
ATOM      8  C   UNL     1     -47.053  -3.701 -23.675  0.00  0.00    +0.000 C 
ATOM      9  N   UNL     1     -46.535  -7.409 -26.806  0.00  0.00    +0.000 N 
ATOM     10  C   UNL     1     -46.524  -7.927 -28.070  0.00  0.00    +0.000 A 
ATOM     11  C   UNL     1     -46.263  -9.278 -28.362  0.00  0.00    +0.000 A 
ATOM     12  O   UNL     1     -46.022 -10.112 -27.449  0.00  0.00    +0.000 OA
ATOM     13  N   UNL     1     -46.270  -9.701 -29.654  0.00  0.00    +0.000 N 
ATOM     14  C   UNL     1     -46.522  -8.861 -30.693  0.00  0.00    +0.000 A 
ATOM     15  O   UNL     1     -46.515  -9.305 -31.870  0.00  0.00    +0.000 OA
ATOM     16  N   UNL     1     -46.782  -7.547 -30.471  0.00  0.00    +0.000 NA
ATOM     17  C   UNL     1     -46.799  -7.034 -29.213  0.00  0.00    +0.000 A 
ATOM     18  N   UNL     1     -47.067  -5.715 -28.989  0.00  0.00    +0.000 N 
ATOM     19  O   UNL     1     -46.288  -8.215 -25.715  0.00  0.00    +0.000 OA
ATOM     20  H   UNL     1     -46.086 -10.648 -29.844  0.00  0.00    +0.000 HD
ENDROOT
BRANCH  18  21
ATOM     21  C   UNL     1     -47.360  -4.828 -30.122  0.00  0.00    +0.000 C 
BRANCH  21  22
ATOM     22  C   UNL     1     -46.096  -4.155 -30.658  0.00  0.00    +0.000 C 
BRANCH  22  23
ATOM     23  O   UNL     1     -46.331  -2.781 -30.741  0.00  0.00    +0.000 OA
ATOM     24  H   UNL     1     -47.282  -2.621 -30.838  0.00  0.00    +0.000 HD
ENDBRANCH  22  23
BRANCH  22  25
ATOM     25  C   UNL     1     -45.702  -4.708 -32.031  0.00  0.00    +0.000 C 
BRANCH  25  26
ATOM     26  O   UNL     1     -44.849  -5.808 -31.891  0.00  0.00    +0.000 OA
ATOM     27  H   UNL     1     -45.372  -6.599 -31.686  0.00  0.00    +0.000 HD
ENDBRANCH  25  26
BRANCH  25  28
ATOM     28  C   UNL     1     -46.944  -5.107 -32.833  0.00  0.00    +0.000 C 
BRANCH  28  29
ATOM     29  O   UNL     1     -46.892  -6.448 -33.220  0.00  0.00    +0.000 OA
ATOM     30  H   UNL     1     -46.093  -6.601 -33.749  0.00  0.00    +0.000 HD
ENDBRANCH  28  29
BRANCH  28  31
ATOM     31  C   UNL     1     -47.160  -4.204 -34.041  0.00  0.00    +0.000 C 
BRANCH  31  32
ATOM     32  O   UNL     1     -47.569  -2.930 -33.644  0.00  0.00    +0.000 OA
ATOM     33  H   UNL     1     -47.589  -2.884 -32.676  0.00  0.00    +0.000 HD
ENDBRANCH  31  32
ENDBRANCH  28  31
ENDBRANCH  25  28
ENDBRANCH  22  25
ENDBRANCH  21  22
ENDBRANCH  18  21
TORSDOF 9
ENDMDL
MODEL 2
REMARK VINA RESULT:      -5.9     11.241     15.057
REMARK  Name = ZINC000005011747 PubChem-92247271
REMARK  9 active torsions:
REMARK  status: ('A' for Active; 'I' for Inactive)
REMARK    1  A    between atoms: N_18  and  C_21
REMARK    2  A    between atoms: C_21  and  C_22
REMARK    3  A    between atoms: C_22  and  O_23
REMARK    4  A    between atoms: C_22  and  C_25
REMARK    5  A    between atoms: C_25  and  O_26
REMARK    6  A    between atoms: C_25  and  C_28
REMARK    7  A    between atoms: C_28  and  O_29
REMARK    8  A    between atoms: C_28  and  C_31
REMARK    9  A    between atoms: C_31  and  O_32
REMARK                            x       y       z     vdW  Elec       q    Type
REMARK                         _______ _______ _______ _____ _____    ______ ____
ROOT
ATOM      1  C   UNL     1     -46.470 -14.945 -17.668  0.00  0.00    +0.000 C 
ATOM      2  C   UNL     1     -46.278 -15.041 -19.145  0.00  0.00    +0.000 A 
ATOM      3  C   UNL     1     -46.012 -16.290 -19.706  0.00  0.00    +0.000 A 
ATOM      4  C   UNL     1     -45.819 -16.441 -21.091  0.00  0.00    +0.000 A 
ATOM      5  C   UNL     1     -45.905 -15.293 -21.925  0.00  0.00    +0.000 A 
ATOM      6  C   UNL     1     -46.174 -14.042 -21.348  0.00  0.00    +0.000 A 
ATOM      7  C   UNL     1     -46.360 -13.909 -19.971  0.00  0.00    +0.000 A 
ATOM      8  C   UNL     1     -46.641 -12.554 -19.415  0.00  0.00    +0.000 C 
ATOM      9  N   UNL     1     -45.728 -15.397 -23.275  0.00  0.00    +0.000 N 
ATOM     10  C   UNL     1     -45.467 -16.612 -23.844  0.00  0.00    +0.000 A 
ATOM     11  C   UNL     1     -45.280 -16.809 -25.224  0.00  0.00    +0.000 A 
ATOM     12  O   UNL     1     -45.338 -15.849 -26.038  0.00  0.00    +0.000 OA
ATOM     13  N   UNL     1     -45.029 -18.058 -25.697  0.00  0.00    +0.000 N 
ATOM     14  C   UNL     1     -44.951 -19.143 -24.882  0.00  0.00    +0.000 A 
ATOM     15  O   UNL     1     -44.717 -20.277 -25.374  0.00  0.00    +0.000 OA
ATOM     16  N   UNL     1     -45.122 -19.013 -23.542  0.00  0.00    +0.000 NA
ATOM     17  C   UNL     1     -45.375 -17.804 -22.977  0.00  0.00    +0.000 A 
ATOM     18  N   UNL     1     -45.540 -17.671 -21.629  0.00  0.00    +0.000 N 
ATOM     19  O   UNL     1     -45.817 -14.263 -24.054  0.00  0.00    +0.000 OA
ATOM     20  H   UNL     1     -44.900 -18.181 -26.665  0.00  0.00    +0.000 HD
ENDROOT
BRANCH  18  21
ATOM     21  C   UNL     1     -45.430 -18.851 -20.762  0.00  0.00    +0.000 C 
BRANCH  21  22
ATOM     22  C   UNL     1     -43.992 -19.084 -20.298  0.00  0.00    +0.000 C 
BRANCH  22  23
ATOM     23  O   UNL     1     -43.418 -20.060 -21.115  0.00  0.00    +0.000 OA
ATOM     24  H   UNL     1     -42.730 -20.532 -20.621  0.00  0.00    +0.000 HD
ENDBRANCH  22  23
BRANCH  22  25
ATOM     25  C   UNL     1     -43.937 -19.523 -18.831  0.00  0.00    +0.000 C 
BRANCH  25  26
ATOM     26  O   UNL     1     -45.077 -20.262 -18.498  0.00  0.00    +0.000 OA
ATOM     27  H   UNL     1     -45.739 -19.674 -18.101  0.00  0.00    +0.000 HD
ENDBRANCH  25  26
BRANCH  25  28
ATOM     28  C   UNL     1     -42.678 -20.350 -18.558  0.00  0.00    +0.000 C 
BRANCH  28  29
ATOM     29  O   UNL     1     -42.988 -21.697 -18.352  0.00  0.00    +0.000 OA
ATOM     30  H   UNL     1     -43.257 -22.099 -19.193  0.00  0.00    +0.000 HD
ENDBRANCH  28  29
BRANCH  28  31
ATOM     31  C   UNL     1     -41.871 -19.796 -17.391  0.00  0.00    +0.000 C 
BRANCH  31  32
ATOM     32  O   UNL     1     -42.710 -19.405 -16.346  0.00  0.00    +0.000 OA
ATOM     33  H   UNL     1     -42.795 -18.439 -16.342  0.00  0.00    +0.000 HD
ENDBRANCH  31  32
ENDBRANCH  28  31
ENDBRANCH  25  28
ENDBRANCH  22  25
ENDBRANCH  21  22
ENDBRANCH  18  21
TORSDOF 9
ENDMDL
MODEL 3
REMARK VINA RESULT:      -5.4      8.680     12.461
REMARK  Name = ZINC000005011747 PubChem-92247271
REMARK  9 active torsions:
REMARK  status: ('A' for Active; 'I' for Inactive)
REMARK    1  A    between atoms: N_18  and  C_21
REMARK    2  A    between atoms: C_21  and  C_22
REMARK    3  A    between atoms: C_22  and  O_23
REMARK    4  A    between atoms: C_22  and  C_25
REMARK    5  A    between atoms: C_25  and  O_26
REMARK    6  A    between atoms: C_25  and  C_28
REMARK    7  A    between atoms: C_28  and  O_29
REMARK    8  A    between atoms: C_28  and  C_31
REMARK    9  A    between atoms: C_31  and  O_32
REMARK                            x       y       z     vdW  Elec       q    Type
REMARK                         _______ _______ _______ _____ _____    ______ ____
ROOT
ATOM      1  C   UNL     1     -45.111 -18.862 -20.993  0.00  0.00    +0.000 C 
ATOM      2  C   UNL     1     -45.338 -17.578 -21.719  0.00  0.00    +0.000 A 
ATOM      3  C   UNL     1     -45.168 -17.553 -23.104  0.00  0.00    +0.000 A 
ATOM      4  C   UNL     1     -45.363 -16.372 -23.842  0.00  0.00    +0.000 A 
ATOM      5  C   UNL     1     -45.748 -15.189 -23.153  0.00  0.00    +0.000 A 
ATOM      6  C   UNL     1     -45.916 -15.228 -21.761  0.00  0.00    +0.000 A 
ATOM      7  C   UNL     1     -45.715 -16.408 -21.043  0.00  0.00    +0.000 A 
ATOM      8  C   UNL     1     -45.907 -16.388 -19.564  0.00  0.00    +0.000 C 
ATOM      9  N   UNL     1     -45.952 -14.022 -23.833  0.00  0.00    +0.000 N 
ATOM     10  C   UNL     1     -45.791 -13.977 -25.188  0.00  0.00    +0.000 A 
ATOM     11  C   UNL     1     -45.988 -12.821 -25.965  0.00  0.00    +0.000 A 
ATOM     12  O   UNL     1     -46.330 -11.728 -25.440  0.00  0.00    +0.000 OA
ATOM     13  N   UNL     1     -45.808 -12.876 -27.311  0.00  0.00    +0.000 N 
ATOM     14  C   UNL     1     -45.441 -14.018 -27.950  0.00  0.00    +0.000 A 
ATOM     15  O   UNL     1     -45.288 -14.013 -29.199  0.00  0.00    +0.000 OA
ATOM     16  N   UNL     1     -45.235 -15.164 -27.252  0.00  0.00    +0.000 NA
ATOM     17  C   UNL     1     -45.389 -15.205 -25.903  0.00  0.00    +0.000 A 
ATOM     18  N   UNL     1     -45.175 -16.355 -25.200  0.00  0.00    +0.000 N 
ATOM     19  O   UNL     1     -46.323 -12.893 -23.132  0.00  0.00    +0.000 OA
ATOM     20  H   UNL     1     -45.949 -12.060 -27.842  0.00  0.00    +0.000 HD
ENDROOT
BRANCH  18  21
ATOM     21  C   UNL     1     -44.756 -17.573 -25.904  0.00  0.00    +0.000 C 
BRANCH  21  22
ATOM     22  C   UNL     1     -43.275 -17.532 -26.280  0.00  0.00    +0.000 C 
BRANCH  22  23
ATOM     23  O   UNL     1     -43.175 -17.265 -27.647  0.00  0.00    +0.000 OA
ATOM     24  H   UNL     1     -43.480 -16.361 -27.823  0.00  0.00    +0.000 HD
ENDBRANCH  22  23
BRANCH  22  25
ATOM     25  C   UNL     1     -42.572 -18.852 -25.946  0.00  0.00    +0.000 C 
BRANCH  25  26
ATOM     26  O   UNL     1     -43.479 -19.765 -25.399  0.00  0.00    +0.000 OA
ATOM     27  H   UNL     1     -43.687 -19.508 -24.487  0.00  0.00    +0.000 HD
ENDBRANCH  25  26
BRANCH  25  28
ATOM     28  C   UNL     1     -41.917 -19.449 -27.194  0.00  0.00    +0.000 C 
BRANCH  28  29
ATOM     29  O   UNL     1     -42.853 -20.103 -27.999  0.00  0.00    +0.000 OA
ATOM     30  H   UNL     1     -43.723 -19.690 -27.883  0.00  0.00    +0.000 HD
ENDBRANCH  28  29
BRANCH  28  31
ATOM     31  C   UNL     1     -40.761 -20.380 -26.843  0.00  0.00    +0.000 C 
BRANCH  31  32
ATOM     32  O   UNL     1     -40.833 -20.782 -25.508  0.00  0.00    +0.000 OA
ATOM     33  H   UNL     1     -41.408 -21.560 -25.435  0.00  0.00    +0.000 HD
ENDBRANCH  31  32
ENDBRANCH  28  31
ENDBRANCH  25  28
ENDBRANCH  22  25
ENDBRANCH  21  22
ENDBRANCH  18  21
TORSDOF 9
ENDMDL
