MODEL 1
REMARK VINA RESULT:      -7.3      0.000      0.000
REMARK  Name = ZINC000096011142 ZINC96011142 CSC027537832 MCULE-9100666836 MolPort-028-801-490 PubChem-75455099
REMARK  4 active torsions:
REMARK  status: ('A' for Active; 'I' for Inactive)
REMARK    1  A    between atoms: C_1  and  C_28
REMARK    2  A    between atoms: C_10  and  C_15
REMARK    3  A    between atoms: N_17  and  C_20
REMARK    4  A    between atoms: C_28  and  O_31
REMARK                            x       y       z     vdW  Elec       q    Type
REMARK                         _______ _______ _______ _____ _____    ______ ____
ROOT
ATOM      1  C   UNL     1     -46.361 -12.001 -27.935  0.00  0.00    +0.000 A 
ATOM      2  C   UNL     1     -46.317 -13.215 -28.631  0.00  0.00    +0.000 A 
ATOM      3  C   UNL     1     -46.070 -13.233 -30.005  0.00  0.00    +0.000 A 
ATOM      4  C   UNL     1     -45.870 -12.036 -30.696  0.00  0.00    +0.000 A 
ATOM      5  N   UNL     1     -45.611 -12.063 -32.099  0.00  0.00    +0.000 N 
ATOM      6  C   UNL     1     -45.522 -10.846 -32.840  0.00  0.00    +0.000 C 
ATOM      7  O   UNL     1     -45.204 -10.876 -34.058  0.00  0.00    +0.000 OA
ATOM      8  C   UNL     1     -45.880  -9.543 -32.195  0.00  0.00    +0.000 C 
ATOM      9  N   UNL     1     -45.678  -9.579 -30.741  0.00  0.00    +0.000 N 
ATOM     10  C   UNL     1     -45.280  -8.371 -30.061  0.00  0.00    +0.000 C 
ATOM     11  O   UNL     1     -44.520  -8.443 -29.057  0.00  0.00    +0.000 OA
ATOM     12  C   UNL     1     -45.900 -10.808 -30.013  0.00  0.00    +0.000 A 
ATOM     13  C   UNL     1     -46.152 -10.803 -28.631  0.00  0.00    +0.000 A 
ATOM     14  H   UNL     1     -45.493 -12.926 -32.559  0.00  0.00    +0.000 HD
ENDROOT
BRANCH  10  15
ATOM     15  C   UNL     1     -45.734  -7.041 -30.513  0.00  0.00    +0.000 A 
ATOM     16  N   UNL     1     -44.919  -6.078 -30.973  0.00  0.00    +0.000 NA
ATOM     17  N   UNL     1     -45.674  -5.046 -31.305  0.00  0.00    +0.000 N 
ATOM     18  C   UNL     1     -46.971  -5.338 -31.072  0.00  0.00    +0.000 A 
ATOM     19  C   UNL     1     -47.052  -6.622 -30.561  0.00  0.00    +0.000 A 
BRANCH  17  20
ATOM     20  C   UNL     1     -45.184  -3.799 -31.846  0.00  0.00    +0.000 A 
ATOM     21  C   UNL     1     -45.423  -2.609 -31.132  0.00  0.00    +0.000 A 
ATOM     22  C   UNL     1     -44.973  -1.379 -31.611  0.00  0.00    +0.000 A 
ATOM     23  C   UNL     1     -44.275  -1.313 -32.815  0.00  0.00    +0.000 A 
ATOM     24  F   UNL     1     -43.838  -0.119 -33.282  0.00  0.00    +0.000 F 
ATOM     25  C   UNL     1     -44.024  -2.479 -33.539  0.00  0.00    +0.000 A 
ATOM     26  C   UNL     1     -44.470  -3.720 -33.070  0.00  0.00    +0.000 A 
ATOM     27  C   UNL     1     -44.152  -4.915 -33.902  0.00  0.00    +0.000 C 
ENDBRANCH  17  20
ENDBRANCH  10  15
BRANCH   1  28
ATOM     28  C   UNL     1     -46.622 -11.987 -26.485  0.00  0.00    +0.000 C 
ATOM     29  O   UNL     1     -46.565 -13.060 -25.824  0.00  0.00    +0.000 OA
BRANCH  28  31
ATOM     30  C   UNL     1     -46.055 -10.182 -24.909  0.00  0.00    +0.000 C 
ATOM     31  O   UNL     1     -46.933 -10.783 -25.850  0.00  0.00    +0.000 OA
ENDBRANCH  28  31
ENDBRANCH   1  28
TORSDOF 4
ENDMDL
MODEL 2
REMARK VINA RESULT:      -7.1      8.261     13.347
REMARK  Name = ZINC000096011142 ZINC96011142 CSC027537832 MCULE-9100666836 MolPort-028-801-490 PubChem-75455099
REMARK  4 active torsions:
REMARK  status: ('A' for Active; 'I' for Inactive)
REMARK    1  A    between atoms: C_1  and  C_28
REMARK    2  A    between atoms: C_10  and  C_15
REMARK    3  A    between atoms: N_17  and  C_20
REMARK    4  A    between atoms: C_28  and  O_31
REMARK                            x       y       z     vdW  Elec       q    Type
REMARK                         _______ _______ _______ _____ _____    ______ ____
ROOT
ATOM      1  C   UNL     1     -45.923 -12.821 -27.594  0.00  0.00    +0.000 A 
ATOM      2  C   UNL     1     -45.210 -13.149 -28.753  0.00  0.00    +0.000 A 
ATOM      3  C   UNL     1     -44.449 -14.318 -28.807  0.00  0.00    +0.000 A 
ATOM      4  C   UNL     1     -44.390 -15.167 -27.699  0.00  0.00    +0.000 A 
ATOM      5  N   UNL     1     -43.616 -16.363 -27.763  0.00  0.00    +0.000 N 
ATOM      6  C   UNL     1     -43.450 -17.180 -26.604  0.00  0.00    +0.000 C 
ATOM      7  O   UNL     1     -42.843 -18.278 -26.693  0.00  0.00    +0.000 OA
ATOM      8  C   UNL     1     -43.929 -16.698 -25.269  0.00  0.00    +0.000 C 
ATOM      9  N   UNL     1     -45.047 -15.755 -25.396  0.00  0.00    +0.000 N 
ATOM     10  C   UNL     1     -46.058 -15.726 -24.368  0.00  0.00    +0.000 C 
ATOM     11  O   UNL     1     -47.254 -15.472 -24.678  0.00  0.00    +0.000 OA
ATOM     12  C   UNL     1     -45.108 -14.859 -26.529  0.00  0.00    +0.000 A 
ATOM     13  C   UNL     1     -45.868 -13.679 -26.488  0.00  0.00    +0.000 A 
ATOM     14  H   UNL     1     -43.194 -16.629 -28.613  0.00  0.00    +0.000 HD
ENDROOT
BRANCH  10  15
ATOM     15  C   UNL     1     -45.733 -15.994 -22.953  0.00  0.00    +0.000 A 
ATOM     16  N   UNL     1     -45.212 -17.146 -22.501  0.00  0.00    +0.000 NA
ATOM     17  N   UNL     1     -45.032 -17.014 -21.198  0.00  0.00    +0.000 N 
ATOM     18  C   UNL     1     -45.425 -15.782 -20.808  0.00  0.00    +0.000 A 
ATOM     19  C   UNL     1     -45.882 -15.090 -21.916  0.00  0.00    +0.000 A 
BRANCH  17  20
ATOM     20  C   UNL     1     -44.489 -18.031 -20.327  0.00  0.00    +0.000 A 
ATOM     21  C   UNL     1     -43.097 -18.074 -20.121  0.00  0.00    +0.000 A 
ATOM     22  C   UNL     1     -42.522 -19.037 -19.293  0.00  0.00    +0.000 A 
ATOM     23  C   UNL     1     -43.327 -19.976 -18.652  0.00  0.00    +0.000 A 
ATOM     24  F   UNL     1     -42.770 -20.912 -17.847  0.00  0.00    +0.000 F 
ATOM     25  C   UNL     1     -44.710 -19.951 -18.839  0.00  0.00    +0.000 A 
ATOM     26  C   UNL     1     -45.300 -18.991 -19.669  0.00  0.00    +0.000 A 
ATOM     27  C   UNL     1     -46.784 -19.032 -19.806  0.00  0.00    +0.000 C 
ENDBRANCH  17  20
ENDBRANCH  10  15
BRANCH   1  28
ATOM     28  C   UNL     1     -46.725 -11.586 -27.543  0.00  0.00    +0.000 C 
ATOM     29  O   UNL     1     -47.480 -11.364 -26.556  0.00  0.00    +0.000 OA
BRANCH  28  31
ATOM     30  C   UNL     1     -46.850  -9.275 -28.384  0.00  0.00    +0.000 C 
ATOM     31  O   UNL     1     -46.643 -10.665 -28.590  0.00  0.00    +0.000 OA
ENDBRANCH  28  31
ENDBRANCH   1  28
TORSDOF 4
ENDMDL
MODEL 3
REMARK VINA RESULT:      -6.7      2.556      4.450
REMARK  Name = ZINC000096011142 ZINC96011142 CSC027537832 MCULE-9100666836 MolPort-028-801-490 PubChem-75455099
REMARK  4 active torsions:
REMARK  status: ('A' for Active; 'I' for Inactive)
REMARK    1  A    between atoms: C_1  and  C_28
REMARK    2  A    between atoms: C_10  and  C_15
REMARK    3  A    between atoms: N_17  and  C_20
REMARK    4  A    between atoms: C_28  and  O_31
REMARK                            x       y       z     vdW  Elec       q    Type
REMARK                         _______ _______ _______ _____ _____    ______ ____
ROOT
ATOM      1  C   UNL     1     -45.768  -9.587 -28.100  0.00  0.00    +0.000 A 
ATOM      2  C   UNL     1     -45.867  -9.567 -26.704  0.00  0.00    +0.000 A 
ATOM      3  C   UNL     1     -46.250  -8.400 -26.039  0.00  0.00    +0.000 A 
ATOM      4  C   UNL     1     -46.533  -7.241 -26.766  0.00  0.00    +0.000 A 
ATOM      5  N   UNL     1     -46.931  -6.055 -26.081  0.00  0.00    +0.000 N 
ATOM      6  C   UNL     1     -47.109  -4.833 -26.796  0.00  0.00    +0.000 C 
ATOM      7  O   UNL     1     -47.548  -3.816 -26.199  0.00  0.00    +0.000 OA
ATOM      8  C   UNL     1     -46.704  -4.737 -28.234  0.00  0.00    +0.000 C 
ATOM      9  N   UNL     1     -46.759  -6.041 -28.907  0.00  0.00    +0.000 N 
ATOM     10  C   UNL     1     -47.102  -6.091 -30.307  0.00  0.00    +0.000 C 
ATOM     11  O   UNL     1     -47.756  -7.073 -30.753  0.00  0.00    +0.000 OA
ATOM     12  C   UNL     1     -46.450  -7.245 -28.169  0.00  0.00    +0.000 A 
ATOM     13  C   UNL     1     -46.061  -8.424 -28.826  0.00  0.00    +0.000 A 
ATOM     14  H   UNL     1     -47.085  -6.080 -25.108  0.00  0.00    +0.000 HD
ENDROOT
BRANCH  10  15
ATOM     15  C   UNL     1     -46.712  -5.016 -31.240  0.00  0.00    +0.000 A 
ATOM     16  N   UNL     1     -45.525  -4.388 -31.219  0.00  0.00    +0.000 NA
ATOM     17  N   UNL     1     -45.524  -3.511 -32.208  0.00  0.00    +0.000 N 
ATOM     18  C   UNL     1     -46.697  -3.576 -32.874  0.00  0.00    +0.000 A 
ATOM     19  C   UNL     1     -47.492  -4.540 -32.279  0.00  0.00    +0.000 A 
BRANCH  17  20
ATOM     20  C   UNL     1     -44.428  -2.627 -32.533  0.00  0.00    +0.000 A 
ATOM     21  C   UNL     1     -44.476  -1.294 -32.084  0.00  0.00    +0.000 A 
ATOM     22  C   UNL     1     -43.446  -0.400 -32.372  0.00  0.00    +0.000 A 
ATOM     23  C   UNL     1     -42.345  -0.821 -33.115  0.00  0.00    +0.000 A 
ATOM     24  F   UNL     1     -41.343   0.046 -33.396  0.00  0.00    +0.000 F 
ATOM     25  C   UNL     1     -42.274  -2.139 -33.569  0.00  0.00    +0.000 A 
ATOM     26  C   UNL     1     -43.301  -3.047 -33.287  0.00  0.00    +0.000 A 
ATOM     27  C   UNL     1     -43.141  -4.436 -33.803  0.00  0.00    +0.000 C 
ENDBRANCH  17  20
ENDBRANCH  10  15
BRANCH   1  28
ATOM     28  C   UNL     1     -45.363 -10.820 -28.797  0.00  0.00    +0.000 C 
ATOM     29  O   UNL     1     -44.139 -11.083 -28.953  0.00  0.00    +0.000 OA
BRANCH  28  31
ATOM     30  C   UNL     1     -46.032 -13.025 -29.665  0.00  0.00    +0.000 C 
ATOM     31  O   UNL     1     -46.340 -11.693 -29.281  0.00  0.00    +0.000 OA
ENDBRANCH  28  31
ENDBRANCH   1  28
TORSDOF 4
ENDMDL
