MODEL 1
REMARK VINA RESULT:      -6.3      0.000      0.000
REMARK  Name = ZINC000009112329 ZINC09112329 PubChem-40938212
REMARK  5 active torsions:
REMARK  status: ('A' for Active; 'I' for Inactive)
REMARK    1  A    between atoms: N_1  and  C_10
REMARK    2  A    between atoms: C_2  and  C_18
REMARK    3  A    between atoms: C_5  and  O_15
REMARK    4  A    between atoms: O_15  and  C_17
REMARK    5  A    between atoms: C_19  and  C_20
REMARK                            x       y       z     vdW  Elec       q    Type
REMARK                         _______ _______ _______ _____ _____    ______ ____
ROOT
ATOM      1  N   UNL     1     -46.839  -7.285 -30.983  0.00  0.00    +0.000 N 
ATOM      2  C   UNL     1     -47.090  -5.934 -30.574  0.00  0.00    +0.000 C 
ATOM      3  O   UNL     1     -47.418  -5.085 -31.446  0.00  0.00    +0.000 OA
ATOM      4  H   UNL     1     -47.155  -7.535 -31.882  0.00  0.00    +0.000 HD
ENDROOT
BRANCH   1  10
ATOM      5  C   UNL     1     -44.757  -8.286 -30.056  0.00  0.00    +0.000 A 
ATOM      6  C   UNL     1     -44.142  -9.258 -29.242  0.00  0.00    +0.000 A 
ATOM      7  C   UNL     1     -44.931 -10.224 -28.630  0.00  0.00    +0.000 A 
ATOM      8  C   UNL     1     -46.279 -10.255 -28.803  0.00  0.00    +0.000 A 
ATOM      9  C   UNL     1     -46.935  -9.312 -29.584  0.00  0.00    +0.000 A 
ATOM     10  C   UNL     1     -46.177  -8.311 -30.228  0.00  0.00    +0.000 A 
ATOM     11  O   UNL     1     -46.851 -11.292 -28.103  0.00  0.00    +0.000 OA
ATOM     12  C   UNL     1     -45.845 -12.034 -27.412  0.00  0.00    +0.000 C 
ATOM     13  C   UNL     1     -44.507 -11.338 -27.741  0.00  0.00    +0.000 C 
ATOM     14  C   UNL     1     -46.103 -11.973 -25.920  0.00  0.00    +0.000 C 
BRANCH   5  15
ATOM     15  O   UNL     1     -43.910  -7.353 -30.673  0.00  0.00    +0.000 OA
BRANCH  15  17
ATOM     16  C   UNL     1     -43.559  -5.003 -30.999  0.00  0.00    +0.000 C 
ATOM     17  C   UNL     1     -43.413  -6.177 -30.050  0.00  0.00    +0.000 C 
ENDBRANCH  15  17
ENDBRANCH   5  15
ENDBRANCH   1  10
BRANCH   2  18
ATOM     18  C   UNL     1     -47.020  -5.541 -29.157  0.00  0.00    +0.000 C 
ATOM     19  C   UNL     1     -47.422  -4.349 -28.730  0.00  0.00    +0.000 C 
BRANCH  19  20
ATOM     20  C   UNL     1     -47.353  -3.977 -27.312  0.00  0.00    +0.000 A 
ATOM     21  C   UNL     1     -47.212  -4.869 -26.244  0.00  0.00    +0.000 A 
ATOM     22  C   UNL     1     -47.212  -4.035 -25.147  0.00  0.00    +0.000 A 
ATOM     23  C   UNL     1     -47.098  -4.337 -23.793  0.00  0.00    +0.000 A 
ATOM     24  C   UNL     1     -47.125  -3.265 -22.884  0.00  0.00    +0.000 A 
ATOM     25  C   UNL     1     -47.257  -1.938 -23.343  0.00  0.00    +0.000 A 
ATOM     26  C   UNL     1     -47.367  -1.665 -24.719  0.00  0.00    +0.000 A 
ATOM     27  C   UNL     1     -47.341  -2.748 -25.592  0.00  0.00    +0.000 A 
ATOM     28  O   UNL     1     -47.428  -2.727 -26.896  0.00  0.00    +0.000 OA
ENDBRANCH  19  20
ENDBRANCH   2  18
TORSDOF 5
ENDMDL
MODEL 2
REMARK VINA RESULT:      -6.1      1.593      2.182
REMARK  Name = ZINC000009112329 ZINC09112329 PubChem-40938212
REMARK  5 active torsions:
REMARK  status: ('A' for Active; 'I' for Inactive)
REMARK    1  A    between atoms: N_1  and  C_10
REMARK    2  A    between atoms: C_2  and  C_18
REMARK    3  A    between atoms: C_5  and  O_15
REMARK    4  A    between atoms: O_15  and  C_17
REMARK    5  A    between atoms: C_19  and  C_20
REMARK                            x       y       z     vdW  Elec       q    Type
REMARK                         _______ _______ _______ _____ _____    ______ ____
ROOT
ATOM      1  N   UNL     1     -47.338  -7.170 -31.202  0.00  0.00    +0.000 N 
ATOM      2  C   UNL     1     -47.161  -5.812 -30.780  0.00  0.00    +0.000 C 
ATOM      3  O   UNL     1     -47.135  -4.902 -31.653  0.00  0.00    +0.000 OA
ATOM      4  H   UNL     1     -47.658  -7.304 -32.125  0.00  0.00    +0.000 HD
ENDROOT
BRANCH   1  10
ATOM      5  C   UNL     1     -46.474  -9.498 -31.021  0.00  0.00    +0.000 A 
ATOM      6  C   UNL     1     -46.177 -10.618 -30.220  0.00  0.00    +0.000 A 
ATOM      7  C   UNL     1     -46.507 -10.589 -28.870  0.00  0.00    +0.000 A 
ATOM      8  C   UNL     1     -47.112  -9.509 -28.310  0.00  0.00    +0.000 A 
ATOM      9  C   UNL     1     -47.414  -8.375 -29.053  0.00  0.00    +0.000 A 
ATOM     10  C   UNL     1     -47.100  -8.356 -30.429  0.00  0.00    +0.000 A 
ATOM     11  O   UNL     1     -47.341  -9.703 -26.967  0.00  0.00    +0.000 OA
ATOM     12  C   UNL     1     -46.879 -10.995 -26.571  0.00  0.00    +0.000 C 
ATOM     13  C   UNL     1     -46.295 -11.644 -27.844  0.00  0.00    +0.000 C 
ATOM     14  C   UNL     1     -45.793 -10.848 -25.525  0.00  0.00    +0.000 C 
BRANCH   5  15
ATOM     15  O   UNL     1     -46.147  -9.592 -32.382  0.00  0.00    +0.000 OA
BRANCH  15  17
ATOM     16  C   UNL     1     -45.799 -11.446 -33.863  0.00  0.00    +0.000 C 
ATOM     17  C   UNL     1     -45.151 -10.455 -32.917  0.00  0.00    +0.000 C 
ENDBRANCH  15  17
ENDBRANCH   5  15
ENDBRANCH   1  10
BRANCH   2  18
ATOM     18  C   UNL     1     -47.061  -5.463 -29.354  0.00  0.00    +0.000 C 
ATOM     19  C   UNL     1     -47.494  -4.302 -28.874  0.00  0.00    +0.000 C 
BRANCH  19  20
ATOM     20  C   UNL     1     -47.395  -3.975 -27.447  0.00  0.00    +0.000 A 
ATOM     21  C   UNL     1     -47.206  -4.898 -26.413  0.00  0.00    +0.000 A 
ATOM     22  C   UNL     1     -47.193  -4.100 -25.290  0.00  0.00    +0.000 A 
ATOM     23  C   UNL     1     -47.037  -4.443 -23.950  0.00  0.00    +0.000 A 
ATOM     24  C   UNL     1     -47.061  -3.402 -23.005  0.00  0.00    +0.000 A 
ATOM     25  C   UNL     1     -47.232  -2.064 -23.417  0.00  0.00    +0.000 A 
ATOM     26  C   UNL     1     -47.385  -1.749 -24.780  0.00  0.00    +0.000 A 
ATOM     27  C   UNL     1     -47.361  -2.803 -25.688  0.00  0.00    +0.000 A 
ATOM     28  O   UNL     1     -47.484  -2.742 -26.988  0.00  0.00    +0.000 OA
ENDBRANCH  19  20
ENDBRANCH   2  18
TORSDOF 5
ENDMDL
MODEL 3
REMARK VINA RESULT:      -5.9      3.837      6.844
REMARK  Name = ZINC000009112329 ZINC09112329 PubChem-40938212
REMARK  5 active torsions:
REMARK  status: ('A' for Active; 'I' for Inactive)
REMARK    1  A    between atoms: N_1  and  C_10
REMARK    2  A    between atoms: C_2  and  C_18
REMARK    3  A    between atoms: C_5  and  O_15
REMARK    4  A    between atoms: O_15  and  C_17
REMARK    5  A    between atoms: C_19  and  C_20
REMARK                            x       y       z     vdW  Elec       q    Type
REMARK                         _______ _______ _______ _____ _____    ______ ____
ROOT
ATOM      1  N   UNL     1     -47.371  -4.367 -31.957  0.00  0.00    +0.000 N 
ATOM      2  C   UNL     1     -46.698  -3.446 -32.823  0.00  0.00    +0.000 C 
ATOM      3  O   UNL     1     -47.366  -2.838 -33.702  0.00  0.00    +0.000 OA
ATOM      4  H   UNL     1     -48.355  -4.312 -31.938  0.00  0.00    +0.000 HD
ENDROOT
BRANCH   1  10
ATOM      5  C   UNL     1     -46.494  -6.673 -31.618  0.00  0.00    +0.000 A 
ATOM      6  C   UNL     1     -45.829  -7.605 -30.797  0.00  0.00    +0.000 A 
ATOM      7  C   UNL     1     -45.462  -7.230 -29.510  0.00  0.00    +0.000 A 
ATOM      8  C   UNL     1     -45.734  -5.989 -29.027  0.00  0.00    +0.000 A 
ATOM      9  C   UNL     1     -46.375  -5.030 -29.801  0.00  0.00    +0.000 A 
ATOM     10  C   UNL     1     -46.769  -5.363 -31.114  0.00  0.00    +0.000 A 
ATOM     11  O   UNL     1     -45.278  -5.841 -27.737  0.00  0.00    +0.000 OA
ATOM     12  C   UNL     1     -44.663  -7.051 -27.292  0.00  0.00    +0.000 C 
ATOM     13  C   UNL     1     -44.762  -8.036 -28.476  0.00  0.00    +0.000 C 
ATOM     14  C   UNL     1     -43.208  -6.789 -26.961  0.00  0.00    +0.000 C 
BRANCH   5  15
ATOM     15  O   UNL     1     -46.868  -7.114 -32.897  0.00  0.00    +0.000 OA
BRANCH  15  17
ATOM     16  C   UNL     1     -46.210  -6.344 -35.070  0.00  0.00    +0.000 C 
ATOM     17  C   UNL     1     -45.963  -7.353 -33.966  0.00  0.00    +0.000 C 
ENDBRANCH  15  17
ENDBRANCH   5  15
ENDBRANCH   1  10
BRANCH   2  18
ATOM     18  C   UNL     1     -45.261  -3.164 -32.670  0.00  0.00    +0.000 C 
ATOM     19  C   UNL     1     -44.694  -2.072 -33.170  0.00  0.00    +0.000 C 
BRANCH  19  20
ATOM     20  C   UNL     1     -43.262  -1.803 -32.999  0.00  0.00    +0.000 A 
ATOM     21  C   UNL     1     -42.226  -2.691 -33.305  0.00  0.00    +0.000 A 
ATOM     22  C   UNL     1     -41.099  -1.978 -32.959  0.00  0.00    +0.000 A 
ATOM     23  C   UNL     1     -39.755  -2.333 -33.037  0.00  0.00    +0.000 A 
ATOM     24  C   UNL     1     -38.807  -1.387 -32.610  0.00  0.00    +0.000 A 
ATOM     25  C   UNL     1     -39.217  -0.127 -32.129  0.00  0.00    +0.000 A 
ATOM     26  C   UNL     1     -40.584   0.204 -32.065  0.00  0.00    +0.000 A 
ATOM     27  C   UNL     1     -41.497  -0.756 -32.491  0.00  0.00    +0.000 A 
ATOM     28  O   UNL     1     -42.800  -0.665 -32.517  0.00  0.00    +0.000 OA
ENDBRANCH  19  20
ENDBRANCH   2  18
TORSDOF 5
ENDMDL
