MODEL 1
REMARK VINA RESULT:      -6.4      0.000      0.000
REMARK  Name = ZINC000072242268 ZINC72242268 PubChem-95740480
REMARK  4 active torsions:
REMARK  status: ('A' for Active; 'I' for Inactive)
REMARK    1  A    between atoms: C_2  and  C_14
REMARK    2  A    between atoms: C_3  and  C_6
REMARK    3  A    between atoms: C_7  and  C_8
REMARK    4  A    between atoms: C_7  and  N_21
REMARK                            x       y       z     vdW  Elec       q    Type
REMARK                         _______ _______ _______ _____ _____    ______ ____
ROOT
ATOM      1  C   UNL     1     -44.105  -5.664 -34.379  0.00  0.00    +0.000 C 
ATOM      2  C   UNL     1     -44.787  -4.203 -32.383  0.00  0.00    +0.000 C 
ATOM      3  C   UNL     1     -46.145  -3.712 -31.847  0.00  0.00    +0.000 C 
ATOM      4  C   UNL     1     -47.237  -4.241 -32.785  0.00  0.00    +0.000 C 
ATOM      5  C   UNL     1     -46.469  -4.929 -33.842  0.00  0.00    +0.000 C 
ATOM      6  N   UNL     1     -45.074  -4.878 -33.635  0.00  0.00    +0.000 N 
ATOM      7  O   UNL     1     -47.000  -5.514 -34.823  0.00  0.00    +0.000 OA
ENDROOT
BRANCH   2   8
ATOM      8  C   UNL     1     -43.846  -3.056 -32.592  0.00  0.00    +0.000 A 
ATOM      9  C   UNL     1     -44.345  -1.845 -33.084  0.00  0.00    +0.000 A 
ATOM     10  C   UNL     1     -43.487  -0.761 -33.287  0.00  0.00    +0.000 A 
ATOM     11  C   UNL     1     -42.125  -0.884 -33.000  0.00  0.00    +0.000 A 
ATOM     12  C   UNL     1     -41.620  -2.091 -32.508  0.00  0.00    +0.000 A 
ATOM     13  C   UNL     1     -42.477  -3.175 -32.304  0.00  0.00    +0.000 A 
ATOM     14  F   UNL     1     -41.293   0.168 -33.197  0.00  0.00    +0.000 F 
ENDBRANCH   2   8
BRANCH   3  15
ATOM     15  C   UNL     1     -46.366  -4.197 -30.453  0.00  0.00    +0.000 C 
ATOM     16  N   UNL     1     -45.906  -5.492 -30.061  0.00  0.00    +0.000 NA
ATOM     17  O   UNL     1     -46.956  -3.453 -29.625  0.00  0.00    +0.000 OA
BRANCH  16  18
ATOM     18  C   UNL     1     -46.094  -6.003 -28.713  0.00  0.00    +0.000 C 
BRANCH  18  19
ATOM     19  C   UNL     1     -44.773  -6.347 -28.120  0.00  0.00    +0.000 A 
ATOM     20  C   UNL     1     -44.704  -6.887 -26.831  0.00  0.00    +0.000 A 
ATOM     21  C   UNL     1     -43.461  -7.189 -26.265  0.00  0.00    +0.000 A 
ATOM     22  C   UNL     1     -42.287  -6.945 -26.985  0.00  0.00    +0.000 A 
ATOM     23  C   UNL     1     -42.355  -6.399 -28.271  0.00  0.00    +0.000 A 
ATOM     24  C   UNL     1     -43.598  -6.097 -28.837  0.00  0.00    +0.000 A 
ENDBRANCH  18  19
ENDBRANCH  16  18
ENDBRANCH   3  15
TORSDOF 4
ENDMDL
MODEL 2
REMARK VINA RESULT:      -6.2     11.306     14.194
REMARK  Name = ZINC000072242268 ZINC72242268 PubChem-95740480
REMARK  4 active torsions:
REMARK  status: ('A' for Active; 'I' for Inactive)
REMARK    1  A    between atoms: C_2  and  C_14
REMARK    2  A    between atoms: C_3  and  C_6
REMARK    3  A    between atoms: C_7  and  C_8
REMARK    4  A    between atoms: C_7  and  N_21
REMARK                            x       y       z     vdW  Elec       q    Type
REMARK                         _______ _______ _______ _____ _____    ______ ____
ROOT
ATOM      1  C   UNL     1     -41.646 -15.600 -25.918  0.00  0.00    +0.000 C 
ATOM      2  C   UNL     1     -44.036 -16.513 -25.731  0.00  0.00    +0.000 C 
ATOM      3  C   UNL     1     -44.690 -17.853 -26.118  0.00  0.00    +0.000 C 
ATOM      4  C   UNL     1     -43.609 -18.733 -26.759  0.00  0.00    +0.000 C 
ATOM      5  C   UNL     1     -42.427 -17.849 -26.786  0.00  0.00    +0.000 C 
ATOM      6  N   UNL     1     -42.677 -16.574 -26.234  0.00  0.00    +0.000 N 
ATOM      7  O   UNL     1     -41.305 -18.196 -27.240  0.00  0.00    +0.000 OA
ENDROOT
BRANCH   2   8
ATOM      8  C   UNL     1     -44.782 -15.360 -26.328  0.00  0.00    +0.000 A 
ATOM      9  C   UNL     1     -45.536 -14.529 -25.491  0.00  0.00    +0.000 A 
ATOM     10  C   UNL     1     -46.241 -13.446 -26.025  0.00  0.00    +0.000 A 
ATOM     11  C   UNL     1     -46.196 -13.191 -27.398  0.00  0.00    +0.000 A 
ATOM     12  C   UNL     1     -45.445 -14.017 -28.239  0.00  0.00    +0.000 A 
ATOM     13  C   UNL     1     -44.739 -15.099 -27.707  0.00  0.00    +0.000 A 
ATOM     14  F   UNL     1     -46.880 -12.142 -27.915  0.00  0.00    +0.000 F 
ENDBRANCH   2   8
BRANCH   3  15
ATOM     15  C   UNL     1     -45.271 -18.521 -24.916  0.00  0.00    +0.000 C 
ATOM     16  N   UNL     1     -44.695 -18.307 -23.626  0.00  0.00    +0.000 NA
ATOM     17  O   UNL     1     -46.274 -19.271 -25.050  0.00  0.00    +0.000 OA
BRANCH  16  18
ATOM     18  C   UNL     1     -45.232 -18.931 -22.428  0.00  0.00    +0.000 C 
BRANCH  18  19
ATOM     19  C   UNL     1     -45.593 -17.883 -21.436  0.00  0.00    +0.000 A 
ATOM     20  C   UNL     1     -46.072 -18.249 -20.173  0.00  0.00    +0.000 A 
ATOM     21  C   UNL     1     -46.434 -17.263 -19.250  0.00  0.00    +0.000 A 
ATOM     22  C   UNL     1     -46.323 -15.911 -19.591  0.00  0.00    +0.000 A 
ATOM     23  C   UNL     1     -45.852 -15.545 -20.855  0.00  0.00    +0.000 A 
ATOM     24  C   UNL     1     -45.490 -16.530 -21.779  0.00  0.00    +0.000 A 
ENDBRANCH  18  19
ENDBRANCH  16  18
ENDBRANCH   3  15
TORSDOF 4
ENDMDL
MODEL 3
REMARK VINA RESULT:      -6.2      3.542      7.033
REMARK  Name = ZINC000072242268 ZINC72242268 PubChem-95740480
REMARK  4 active torsions:
REMARK  status: ('A' for Active; 'I' for Inactive)
REMARK    1  A    between atoms: C_2  and  C_14
REMARK    2  A    between atoms: C_3  and  C_6
REMARK    3  A    between atoms: C_7  and  C_8
REMARK    4  A    between atoms: C_7  and  N_21
REMARK                            x       y       z     vdW  Elec       q    Type
REMARK                         _______ _______ _______ _____ _____    ______ ____
ROOT
ATOM      1  C   UNL     1     -44.915  -6.014 -28.087  0.00  0.00    +0.000 C 
ATOM      2  C   UNL     1     -45.967  -6.220 -30.418  0.00  0.00    +0.000 C 
ATOM      3  C   UNL     1     -47.145  -5.512 -31.113  0.00  0.00    +0.000 C 
ATOM      4  C   UNL     1     -47.755  -4.525 -30.110  0.00  0.00    +0.000 C 
ATOM      5  C   UNL     1     -46.970  -4.762 -28.883  0.00  0.00    +0.000 C 
ATOM      6  N   UNL     1     -45.975  -5.751 -29.045  0.00  0.00    +0.000 N 
ATOM      7  O   UNL     1     -47.154  -4.140 -27.804  0.00  0.00    +0.000 OA
ENDROOT
BRANCH   2   8
ATOM      8  C   UNL     1     -46.122  -7.708 -30.481  0.00  0.00    +0.000 A 
ATOM      9  C   UNL     1     -45.046  -8.487 -30.921  0.00  0.00    +0.000 A 
ATOM     10  C   UNL     1     -45.166  -9.879 -30.989  0.00  0.00    +0.000 A 
ATOM     11  C   UNL     1     -46.364 -10.496 -30.619  0.00  0.00    +0.000 A 
ATOM     12  C   UNL     1     -47.442  -9.723 -30.178  0.00  0.00    +0.000 A 
ATOM     13  C   UNL     1     -47.323  -8.333 -30.110  0.00  0.00    +0.000 A 
ATOM     14  F   UNL     1     -46.480 -11.844 -30.685  0.00  0.00    +0.000 F 
ENDBRANCH   2   8
BRANCH   3  15
ATOM     15  C   UNL     1     -46.680  -4.800 -32.340  0.00  0.00    +0.000 C 
ATOM     16  N   UNL     1     -46.554  -3.376 -32.341  0.00  0.00    +0.000 NA
ATOM     17  O   UNL     1     -46.395  -5.465 -33.371  0.00  0.00    +0.000 OA
BRANCH  16  18
ATOM     18  C   UNL     1     -46.099  -2.642 -33.510  0.00  0.00    +0.000 C 
BRANCH  18  19
ATOM     19  C   UNL     1     -44.697  -2.191 -33.303  0.00  0.00    +0.000 A 
ATOM     20  C   UNL     1     -43.633  -3.009 -33.697  0.00  0.00    +0.000 A 
ATOM     21  C   UNL     1     -42.314  -2.595 -33.480  0.00  0.00    +0.000 A 
ATOM     22  C   UNL     1     -42.060  -1.365 -32.865  0.00  0.00    +0.000 A 
ATOM     23  C   UNL     1     -43.123  -0.550 -32.465  0.00  0.00    +0.000 A 
ATOM     24  C   UNL     1     -44.441  -0.963 -32.681  0.00  0.00    +0.000 A 
ENDBRANCH  18  19
ENDBRANCH  16  18
ENDBRANCH   3  15
TORSDOF 4
ENDMDL
