MODEL 1
REMARK VINA RESULT:      -7.3      0.000      0.000
REMARK  Name = ZINC000004702219 ZINC04702219 PubChem-1342041
REMARK  3 active torsions:
REMARK  status: ('A' for Active; 'I' for Inactive)
REMARK    1  A    between atoms: C_3  and  C_22
REMARK    2  A    between atoms: C_4  and  C_16
REMARK    3  A    between atoms: N_24  and  C_26
REMARK                            x       y       z     vdW  Elec       q    Type
REMARK                         _______ _______ _______ _____ _____    ______ ____
ROOT
ATOM      1  C   UNL     1     -44.891  -8.068 -34.002  0.00  0.00    +0.000 C 
ATOM      2  C   UNL     1     -45.015  -6.903 -33.077  0.00  0.00    +0.000 C 
ATOM      3  C   UNL     1     -45.617  -6.981 -31.866  0.00  0.00    +0.000 C 
ATOM      4  C   UNL     1     -45.580  -5.774 -30.943  0.00  0.00    +0.000 C 
ATOM      5  C   UNL     1     -45.349  -4.452 -31.642  0.00  0.00    +0.000 C 
ATOM      6  C   UNL     1     -44.749  -4.425 -32.842  0.00  0.00    +0.000 C 
ATOM      7  N   UNL     1     -44.512  -5.647 -33.544  0.00  0.00    +0.000 N 
ATOM      8  C   UNL     1     -44.444  -3.126 -33.536  0.00  0.00    +0.000 C 
ATOM      9  C   UNL     1     -44.137  -1.993 -32.554  0.00  0.00    +0.000 C 
ATOM     10  C   UNL     1     -45.244  -1.861 -31.504  0.00  0.00    +0.000 C 
ATOM     11  C   UNL     1     -45.680  -3.186 -30.947  0.00  0.00    +0.000 C 
ATOM     12  O   UNL     1     -46.355  -3.208 -29.884  0.00  0.00    +0.000 OA
ATOM     13  C   UNL     1     -44.049  -0.694 -33.326  0.00  0.00    +0.000 C 
ATOM     14  C   UNL     1     -42.800  -2.235 -31.872  0.00  0.00    +0.000 C 
ATOM     15  H   UNL     1     -43.985  -5.624 -34.375  0.00  0.00    +0.000 HD
ENDROOT
BRANCH   4  16
ATOM     16  C   UNL     1     -44.582  -5.970 -29.837  0.00  0.00    +0.000 A 
ATOM     17  C   UNL     1     -44.985  -6.320 -28.542  0.00  0.00    +0.000 A 
ATOM     18  C   UNL     1     -44.031  -6.500 -27.540  0.00  0.00    +0.000 A 
ATOM     19  C   UNL     1     -42.680  -6.328 -27.847  0.00  0.00    +0.000 A 
ATOM     20  N   UNL     1     -42.304  -5.991 -29.110  0.00  0.00    +0.000 NA
ATOM     21  C   UNL     1     -43.218  -5.812 -30.101  0.00  0.00    +0.000 A 
ENDBRANCH   4  16
BRANCH   3  22
ATOM     22  C   UNL     1     -46.268  -8.216 -31.342  0.00  0.00    +0.000 C 
ATOM     23  O   UNL     1     -47.500  -8.423 -31.511  0.00  0.00    +0.000 OA
ATOM     24  N   UNL     1     -45.471  -9.174 -30.629  0.00  0.00    +0.000 N 
ATOM     25  H   UNL     1     -44.524  -8.942 -30.494  0.00  0.00    +0.000 HD
BRANCH  24  26
ATOM     26  C   UNL     1     -45.904 -10.431 -30.093  0.00  0.00    +0.000 A 
ATOM     27  C   UNL     1     -45.804 -11.573 -30.895  0.00  0.00    +0.000 A 
ATOM     28  C   UNL     1     -46.219 -12.817 -30.410  0.00  0.00    +0.000 A 
ATOM     29  C   UNL     1     -46.738 -12.926 -29.118  0.00  0.00    +0.000 A 
ATOM     30  C   UNL     1     -46.843 -11.790 -28.310  0.00  0.00    +0.000 A 
ATOM     31  C   UNL     1     -46.427 -10.547 -28.796  0.00  0.00    +0.000 A 
ATOM     32  F   UNL     1     -47.347 -11.894 -27.057  0.00  0.00    +0.000 F 
ENDBRANCH  24  26
ENDBRANCH   3  22
TORSDOF 3
ENDMDL
MODEL 2
REMARK VINA RESULT:      -7.0      8.986     14.448
REMARK  Name = ZINC000004702219 ZINC04702219 PubChem-1342041
REMARK  3 active torsions:
REMARK  status: ('A' for Active; 'I' for Inactive)
REMARK    1  A    between atoms: C_3  and  C_22
REMARK    2  A    between atoms: C_4  and  C_16
REMARK    3  A    between atoms: N_24  and  C_26
REMARK                            x       y       z     vdW  Elec       q    Type
REMARK                         _______ _______ _______ _____ _____    ______ ____
ROOT
ATOM      1  C   UNL     1     -42.757 -14.241 -22.820  0.00  0.00    +0.000 C 
ATOM      2  C   UNL     1     -43.458 -15.454 -22.307  0.00  0.00    +0.000 C 
ATOM      3  C   UNL     1     -44.659 -15.869 -22.776  0.00  0.00    +0.000 C 
ATOM      4  C   UNL     1     -45.232 -17.186 -22.281  0.00  0.00    +0.000 C 
ATOM      5  C   UNL     1     -44.687 -17.649 -20.947  0.00  0.00    +0.000 C 
ATOM      6  C   UNL     1     -43.492 -17.210 -20.524  0.00  0.00    +0.000 C 
ATOM      7  N   UNL     1     -42.830 -16.160 -21.231  0.00  0.00    +0.000 N 
ATOM      8  C   UNL     1     -42.890 -17.701 -19.235  0.00  0.00    +0.000 C 
ATOM      9  C   UNL     1     -43.278 -19.147 -18.918  0.00  0.00    +0.000 C 
ATOM     10  C   UNL     1     -44.797 -19.332 -18.973  0.00  0.00    +0.000 C 
ATOM     11  C   UNL     1     -45.422 -18.675 -20.170  0.00  0.00    +0.000 C 
ATOM     12  O   UNL     1     -46.596 -18.993 -20.497  0.00  0.00    +0.000 OA
ATOM     13  C   UNL     1     -42.803 -19.479 -17.520  0.00  0.00    +0.000 C 
ATOM     14  C   UNL     1     -42.602 -20.100 -19.891  0.00  0.00    +0.000 C 
ATOM     15  H   UNL     1     -41.913 -15.915 -20.971  0.00  0.00    +0.000 HD
ENDROOT
BRANCH   4  16
ATOM     16  C   UNL     1     -45.083 -18.263 -23.317  0.00  0.00    +0.000 A 
ATOM     17  C   UNL     1     -43.943 -19.077 -23.366  0.00  0.00    +0.000 A 
ATOM     18  C   UNL     1     -43.838 -20.072 -24.338  0.00  0.00    +0.000 A 
ATOM     19  C   UNL     1     -44.880 -20.243 -25.254  0.00  0.00    +0.000 A 
ATOM     20  N   UNL     1     -45.980 -19.446 -25.191  0.00  0.00    +0.000 NA
ATOM     21  C   UNL     1     -46.102 -18.471 -24.251  0.00  0.00    +0.000 A 
ENDBRANCH   4  16
BRANCH   3  22
ATOM     22  C   UNL     1     -45.441 -15.136 -23.814  0.00  0.00    +0.000 C 
ATOM     23  O   UNL     1     -46.634 -14.791 -23.605  0.00  0.00    +0.000 OA
ATOM     24  N   UNL     1     -44.815 -14.833 -25.070  0.00  0.00    +0.000 N 
ATOM     25  H   UNL     1     -43.894 -15.159 -25.191  0.00  0.00    +0.000 HD
BRANCH  24  26
ATOM     26  C   UNL     1     -45.383 -14.104 -26.166  0.00  0.00    +0.000 A 
ATOM     27  C   UNL     1     -45.193 -14.588 -27.465  0.00  0.00    +0.000 A 
ATOM     28  C   UNL     1     -45.729 -13.903 -28.561  0.00  0.00    +0.000 A 
ATOM     29  C   UNL     1     -46.457 -12.728 -28.362  0.00  0.00    +0.000 A 
ATOM     30  C   UNL     1     -46.651 -12.237 -27.068  0.00  0.00    +0.000 A 
ATOM     31  C   UNL     1     -46.115 -12.922 -25.974  0.00  0.00    +0.000 A 
ATOM     32  F   UNL     1     -47.356 -11.097 -26.875  0.00  0.00    +0.000 F 
ENDBRANCH  24  26
ENDBRANCH   3  22
TORSDOF 3
ENDMDL
MODEL 3
REMARK VINA RESULT:      -7.0      3.021      7.748
REMARK  Name = ZINC000004702219 ZINC04702219 PubChem-1342041
REMARK  3 active torsions:
REMARK  status: ('A' for Active; 'I' for Inactive)
REMARK    1  A    between atoms: C_3  and  C_22
REMARK    2  A    between atoms: C_4  and  C_16
REMARK    3  A    between atoms: N_24  and  C_26
REMARK                            x       y       z     vdW  Elec       q    Type
REMARK                         _______ _______ _______ _____ _____    ______ ____
ROOT
ATOM      1  C   UNL     1     -46.677  -5.069 -27.913  0.00  0.00    +0.000 C 
ATOM      2  C   UNL     1     -46.439  -6.341 -28.658  0.00  0.00    +0.000 C 
ATOM      3  C   UNL     1     -46.143  -6.381 -29.979  0.00  0.00    +0.000 C 
ATOM      4  C   UNL     1     -45.792  -7.714 -30.619  0.00  0.00    +0.000 C 
ATOM      5  C   UNL     1     -46.308  -8.925 -29.875  0.00  0.00    +0.000 C 
ATOM      6  C   UNL     1     -46.590  -8.838 -28.565  0.00  0.00    +0.000 C 
ATOM      7  N   UNL     1     -46.593  -7.561 -27.925  0.00  0.00    +0.000 N 
ATOM      8  C   UNL     1     -47.042 -10.038 -27.780  0.00  0.00    +0.000 C 
ATOM      9  C   UNL     1     -46.433 -11.343 -28.297  0.00  0.00    +0.000 C 
ATOM     10  C   UNL     1     -46.663 -11.497 -29.804  0.00  0.00    +0.000 C 
ATOM     11  C   UNL     1     -46.391 -10.232 -30.568  0.00  0.00    +0.000 C 
ATOM     12  O   UNL     1     -46.251 -10.294 -31.818  0.00  0.00    +0.000 OA
ATOM     13  C   UNL     1     -47.099 -12.502 -27.588  0.00  0.00    +0.000 C 
ATOM     14  C   UNL     1     -44.944 -11.388 -27.992  0.00  0.00    +0.000 C 
ATOM     15  H   UNL     1     -46.703  -7.519 -26.947  0.00  0.00    +0.000 HD
ENDROOT
BRANCH   4  16
ATOM     16  C   UNL     1     -44.312  -7.827 -30.853  0.00  0.00    +0.000 A 
ATOM     17  C   UNL     1     -43.415  -7.995 -29.790  0.00  0.00    +0.000 A 
ATOM     18  C   UNL     1     -42.047  -8.102 -30.043  0.00  0.00    +0.000 A 
ATOM     19  C   UNL     1     -41.591  -8.041 -31.362  0.00  0.00    +0.000 A 
ATOM     20  N   UNL     1     -42.475  -7.880 -32.382  0.00  0.00    +0.000 NA
ATOM     21  C   UNL     1     -43.812  -7.774 -32.158  0.00  0.00    +0.000 A 
ENDBRANCH   4  16
BRANCH   3  22
ATOM     22  C   UNL     1     -46.073  -5.171 -30.849  0.00  0.00    +0.000 C 
ATOM     23  O   UNL     1     -47.082  -4.773 -31.491  0.00  0.00    +0.000 OA
ATOM     24  N   UNL     1     -44.829  -4.462 -30.955  0.00  0.00    +0.000 N 
ATOM     25  H   UNL     1     -44.066  -4.839 -30.461  0.00  0.00    +0.000 HD
BRANCH  24  26
ATOM     26  C   UNL     1     -44.578  -3.263 -31.700  0.00  0.00    +0.000 A 
ATOM     27  C   UNL     1     -43.984  -3.368 -32.963  0.00  0.00    +0.000 A 
ATOM     28  C   UNL     1     -43.720  -2.221 -33.718  0.00  0.00    +0.000 A 
ATOM     29  C   UNL     1     -44.047  -0.961 -33.213  0.00  0.00    +0.000 A 
ATOM     30  C   UNL     1     -44.640  -0.846 -31.953  0.00  0.00    +0.000 A 
ATOM     31  C   UNL     1     -44.904  -1.993 -31.198  0.00  0.00    +0.000 A 
ATOM     32  F   UNL     1     -44.957   0.376 -31.462  0.00  0.00    +0.000 F 
ENDBRANCH  24  26
ENDBRANCH   3  22
TORSDOF 3
ENDMDL
