MODEL 1
REMARK VINA RESULT:      -6.2      0.000      0.000
REMARK  Name = ZINC000012801021 ZINC12801021 MolPort-005-751-258 PubChem-25522332
REMARK  5 active torsions:
REMARK  status: ('A' for Active; 'I' for Inactive)
REMARK    1  A    between atoms: N_1  and  C_9
REMARK    2  A    between atoms: C_2  and  C_16
REMARK    3  A    between atoms: C_5  and  O_13
REMARK    4  A    between atoms: C_11  and  O_14
REMARK    5  A    between atoms: C_17  and  C_18
REMARK                            x       y       z     vdW  Elec       q    Type
REMARK                         _______ _______ _______ _____ _____    ______ ____
ROOT
ATOM      1  N   UNL     1     -46.983 -12.819 -17.922  0.00  0.00    +0.000 N 
ATOM      2  C   UNL     1     -46.890 -14.179 -18.371  0.00  0.00    +0.000 C 
ATOM      3  O   UNL     1     -46.896 -15.102 -17.515  0.00  0.00    +0.000 OA
ATOM      4  H   UNL     1     -47.570 -12.643 -17.151  0.00  0.00    +0.000 HD
ENDROOT
BRANCH   1   9
ATOM      5  C   UNL     1     -44.941  -9.520 -19.661  0.00  0.00    +0.000 A 
ATOM      6  C   UNL     1     -44.263 -10.419 -18.823  0.00  0.00    +0.000 A 
ATOM      7  C   UNL     1     -44.933 -11.500 -18.244  0.00  0.00    +0.000 A 
ATOM      8  C   UNL     1     -44.172 -12.428 -17.363  0.00  0.00    +0.000 C 
ATOM      9  C   UNL     1     -46.302 -11.690 -18.491  0.00  0.00    +0.000 A 
ATOM     10  C   UNL     1     -46.972 -10.803 -19.345  0.00  0.00    +0.000 A 
ATOM     11  C   UNL     1     -46.305  -9.714 -19.925  0.00  0.00    +0.000 A 
BRANCH   5  13
ATOM     12  C   UNL     1     -43.928  -7.267 -19.510  0.00  0.00    +0.000 C 
ATOM     13  O   UNL     1     -44.281  -8.432 -20.242  0.00  0.00    +0.000 OA
ENDBRANCH   5  13
BRANCH  11  14
ATOM     14  O   UNL     1     -46.975  -8.816 -20.762  0.00  0.00    +0.000 OA
ATOM     15  C   UNL     1     -47.676  -7.682 -20.269  0.00  0.00    +0.000 C 
ENDBRANCH  11  14
ENDBRANCH   1   9
BRANCH   2  16
ATOM     16  C   UNL     1     -46.846 -14.546 -19.795  0.00  0.00    +0.000 C 
ATOM     17  C   UNL     1     -45.891 -15.312 -20.313  0.00  0.00    +0.000 C 
BRANCH  17  18
ATOM     18  C   UNL     1     -45.845 -15.699 -21.731  0.00  0.00    +0.000 A 
ATOM     19  C   UNL     1     -45.519 -16.927 -22.290  0.00  0.00    +0.000 A 
ATOM     20  C   UNL     1     -45.138 -18.154 -21.525  0.00  0.00    +0.000 C 
ATOM     21  N   UNL     1     -45.589 -16.848 -23.640  0.00  0.00    +0.000 N 
ATOM     22  C   UNL     1     -45.958 -15.574 -23.916  0.00  0.00    +0.000 A 
ATOM     23  C   UNL     1     -46.167 -15.014 -25.283  0.00  0.00    +0.000 C 
ATOM     24  C   UNL     1     -46.127 -14.828 -22.764  0.00  0.00    +0.000 A 
ATOM     25  C   UNL     1     -45.327 -17.897 -24.598  0.00  0.00    +0.000 A 
ATOM     26  N   UNL     1     -46.221 -18.851 -24.924  0.00  0.00    +0.000 NA
ATOM     27  O   UNL     1     -45.644 -19.613 -25.803  0.00  0.00    +0.000 OA
ATOM     28  C   UNL     1     -44.429 -19.195 -26.054  0.00  0.00    +0.000 A 
ATOM     29  C   UNL     1     -43.501 -19.848 -27.013  0.00  0.00    +0.000 C 
ATOM     30  C   UNL     1     -44.145 -18.073 -25.301  0.00  0.00    +0.000 A 
ENDBRANCH  17  18
ENDBRANCH   2  16
TORSDOF 5
ENDMDL
MODEL 2
REMARK VINA RESULT:      -6.2      3.554      8.175
REMARK  Name = ZINC000012801021 ZINC12801021 MolPort-005-751-258 PubChem-25522332
REMARK  5 active torsions:
REMARK  status: ('A' for Active; 'I' for Inactive)
REMARK    1  A    between atoms: N_1  and  C_9
REMARK    2  A    between atoms: C_2  and  C_16
REMARK    3  A    between atoms: C_5  and  O_13
REMARK    4  A    between atoms: C_11  and  O_14
REMARK    5  A    between atoms: C_17  and  C_18
REMARK                            x       y       z     vdW  Elec       q    Type
REMARK                         _______ _______ _______ _____ _____    ______ ____
ROOT
ATOM      1  N   UNL     1     -45.259 -19.237 -24.325  0.00  0.00    +0.000 N 
ATOM      2  C   UNL     1     -44.959 -18.339 -25.404  0.00  0.00    +0.000 C 
ATOM      3  O   UNL     1     -44.796 -18.811 -26.559  0.00  0.00    +0.000 OA
ATOM      4  H   UNL     1     -45.848 -19.999 -24.530  0.00  0.00    +0.000 HD
ENDROOT
BRANCH   1   9
ATOM      5  C   UNL     1     -43.804 -18.859 -20.348  0.00  0.00    +0.000 A 
ATOM      6  C   UNL     1     -43.100 -19.615 -21.297  0.00  0.00    +0.000 A 
ATOM      7  C   UNL     1     -43.579 -19.747 -22.604  0.00  0.00    +0.000 A 
ATOM      8  C   UNL     1     -42.797 -20.558 -23.578  0.00  0.00    +0.000 C 
ATOM      9  C   UNL     1     -44.783 -19.128 -22.975  0.00  0.00    +0.000 A 
ATOM     10  C   UNL     1     -45.475 -18.356 -22.030  0.00  0.00    +0.000 A 
ATOM     11  C   UNL     1     -44.999 -18.224 -20.716  0.00  0.00    +0.000 A 
BRANCH   5  13
ATOM     12  C   UNL     1     -42.591 -17.596 -18.598  0.00  0.00    +0.000 C 
ATOM     13  O   UNL     1     -43.335 -18.724 -19.036  0.00  0.00    +0.000 OA
ENDBRANCH   5  13
BRANCH  11  14
ATOM     14  O   UNL     1     -45.696 -17.471 -19.766  0.00  0.00    +0.000 OA
ATOM     15  C   UNL     1     -46.022 -16.101 -19.960  0.00  0.00    +0.000 C 
ENDBRANCH  11  14
ENDBRANCH   1   9
BRANCH   2  16
ATOM     16  C   UNL     1     -44.892 -16.879 -25.230  0.00  0.00    +0.000 C 
ATOM     17  C   UNL     1     -45.958 -16.139 -24.939  0.00  0.00    +0.000 C 
BRANCH  17  18
ATOM     18  C   UNL     1     -45.901 -14.682 -24.746  0.00  0.00    +0.000 A 
ATOM     19  C   UNL     1     -46.032 -13.671 -25.689  0.00  0.00    +0.000 A 
ATOM     20  C   UNL     1     -46.273 -13.876 -27.150  0.00  0.00    +0.000 C 
ATOM     21  N   UNL     1     -45.901 -12.466 -25.088  0.00  0.00    +0.000 N 
ATOM     22  C   UNL     1     -45.689 -12.728 -23.776  0.00  0.00    +0.000 A 
ATOM     23  C   UNL     1     -45.488 -11.701 -22.712  0.00  0.00    +0.000 C 
ATOM     24  C   UNL     1     -45.681 -14.088 -23.520  0.00  0.00    +0.000 A 
ATOM     25  C   UNL     1     -45.970 -11.161 -25.706  0.00  0.00    +0.000 A 
ATOM     26  N   UNL     1     -47.126 -10.535 -26.000  0.00  0.00    +0.000 NA
ATOM     27  O   UNL     1     -46.804  -9.400 -26.543  0.00  0.00    +0.000 OA
ATOM     28  C   UNL     1     -45.503  -9.271 -26.609  0.00  0.00    +0.000 A 
ATOM     29  C   UNL     1     -44.808  -8.086 -27.178  0.00  0.00    +0.000 C 
ATOM     30  C   UNL     1     -44.884 -10.386 -26.082  0.00  0.00    +0.000 A 
ENDBRANCH  17  18
ENDBRANCH   2  16
TORSDOF 5
ENDMDL
MODEL 3
REMARK VINA RESULT:      -5.9      6.426      8.375
REMARK  Name = ZINC000012801021 ZINC12801021 MolPort-005-751-258 PubChem-25522332
REMARK  5 active torsions:
REMARK  status: ('A' for Active; 'I' for Inactive)
REMARK    1  A    between atoms: N_1  and  C_9
REMARK    2  A    between atoms: C_2  and  C_16
REMARK    3  A    between atoms: C_5  and  O_13
REMARK    4  A    between atoms: C_11  and  O_14
REMARK    5  A    between atoms: C_17  and  C_18
REMARK                            x       y       z     vdW  Elec       q    Type
REMARK                         _______ _______ _______ _____ _____    ______ ____
ROOT
ATOM      1  N   UNL     1     -46.041  -6.041 -25.387  0.00  0.00    +0.000 N 
ATOM      2  C   UNL     1     -45.158  -7.096 -24.975  0.00  0.00    +0.000 C 
ATOM      3  O   UNL     1     -44.309  -6.859 -24.077  0.00  0.00    +0.000 OA
ATOM      4  H   UNL     1     -46.363  -5.430 -24.686  0.00  0.00    +0.000 HD
ENDROOT
BRANCH   1   9
ATOM      5  C   UNL     1     -47.337  -5.271 -29.362  0.00  0.00    +0.000 A 
ATOM      6  C   UNL     1     -47.548  -4.326 -28.346  0.00  0.00    +0.000 A 
ATOM      7  C   UNL     1     -47.129  -4.580 -27.037  0.00  0.00    +0.000 A 
ATOM      8  C   UNL     1     -47.372  -3.546 -25.993  0.00  0.00    +0.000 C 
ATOM      9  C   UNL     1     -46.499  -5.795 -26.725  0.00  0.00    +0.000 A 
ATOM     10  C   UNL     1     -46.272  -6.729 -27.746  0.00  0.00    +0.000 A 
ATOM     11  C   UNL     1     -46.694  -6.480 -29.060  0.00  0.00    +0.000 A 
BRANCH   5  13
ATOM     12  C   UNL     1     -46.918  -4.426 -31.651  0.00  0.00    +0.000 C 
ATOM     13  O   UNL     1     -47.756  -5.030 -30.675  0.00  0.00    +0.000 OA
ENDBRANCH   5  13
BRANCH  11  14
ATOM     14  O   UNL     1     -46.486  -7.418 -30.077  0.00  0.00    +0.000 OA
ATOM     15  C   UNL     1     -47.055  -8.720 -30.050  0.00  0.00    +0.000 C 
ENDBRANCH  11  14
ENDBRANCH   1   9
BRANCH   2  16
ATOM     16  C   UNL     1     -45.241  -8.461 -25.516  0.00  0.00    +0.000 C 
ATOM     17  C   UNL     1     -46.144  -9.346 -25.103  0.00  0.00    +0.000 C 
BRANCH  17  18
ATOM     18  C   UNL     1     -46.248 -10.708 -25.648  0.00  0.00    +0.000 A 
ATOM     19  C   UNL     1     -45.920 -11.916 -25.047  0.00  0.00    +0.000 A 
ATOM     20  C   UNL     1     -45.376 -12.075 -23.663  0.00  0.00    +0.000 C 
ATOM     21  N   UNL     1     -46.158 -12.933 -25.906  0.00  0.00    +0.000 N 
ATOM     22  C   UNL     1     -46.633 -12.358 -27.037  0.00  0.00    +0.000 A 
ATOM     23  C   UNL     1     -47.040 -13.091 -28.272  0.00  0.00    +0.000 C 
ATOM     24  C   UNL     1     -46.705 -10.982 -26.921  0.00  0.00    +0.000 A 
ATOM     25  C   UNL     1     -45.953 -14.346 -25.678  0.00  0.00    +0.000 A 
ATOM     26  N   UNL     1     -46.821 -15.127 -25.007  0.00  0.00    +0.000 NA
ATOM     27  O   UNL     1     -46.311 -16.321 -24.996  0.00  0.00    +0.000 OA
ATOM     28  C   UNL     1     -45.163 -16.341 -25.625  0.00  0.00    +0.000 A 
ATOM     29  C   UNL     1     -44.321 -17.554 -25.791  0.00  0.00    +0.000 C 
ATOM     30  C   UNL     1     -44.856 -15.082 -26.100  0.00  0.00    +0.000 A 
ENDBRANCH  17  18
ENDBRANCH   2  16
TORSDOF 5
ENDMDL
