MODEL 1
REMARK VINA RESULT:      -6.7      0.000      0.000
REMARK  Name = ZINC000018200763
REMARK  2 active torsions:
REMARK  status: ('A' for Active; 'I' for Inactive)
REMARK    1  A    between atoms: C_14  and  O_15
REMARK    2  A    between atoms: C_17  and  C_21
REMARK                            x       y       z     vdW  Elec       q    Type
REMARK                         _______ _______ _______ _____ _____    ______ ____
ROOT
ATOM      1  C   UNL     1     -44.207 -10.202 -30.639  0.00  0.00    +0.000 C 
ATOM      2  C   UNL     1     -45.695 -10.487 -30.783  0.00  0.00    +0.000 C 
ATOM      3  C   UNL     1     -45.871 -11.966 -31.052  0.00  0.00    +0.000 C 
ATOM      4  C   UNL     1     -46.266  -9.705 -31.967  0.00  0.00    +0.000 C 
ATOM      5  C   UNL     1     -46.513  -8.257 -31.651  0.00  0.00    +0.000 C 
ATOM      6  O   UNL     1     -46.745  -7.464 -32.602  0.00  0.00    +0.000 OA
ATOM      7  C   UNL     1     -46.510  -7.760 -30.253  0.00  0.00    +0.000 C 
ATOM      8  C   UNL     1     -46.456  -8.655 -29.224  0.00  0.00    +0.000 C 
ATOM      9  C   UNL     1     -46.432 -10.135 -29.490  0.00  0.00    +0.000 C 
ATOM     10  N   UNL     1     -46.537  -8.224 -27.853  0.00  0.00    +0.000 N 
ATOM     11  C   UNL     1     -46.700  -6.839 -27.583  0.00  0.00    +0.000 A 
ATOM     12  N   UNL     1     -46.863  -6.273 -26.373  0.00  0.00    +0.000 N 
ATOM     13  N   UNL     1     -47.003  -4.965 -26.572  0.00  0.00    +0.000 NA
ATOM     14  C   UNL     1     -46.928  -4.730 -27.900  0.00  0.00    +0.000 A 
ATOM     15  C   UNL     1     -46.740  -5.914 -28.570  0.00  0.00    +0.000 A 
ATOM     16  C   UNL     1     -46.537  -6.245 -30.016  0.00  0.00    +0.000 C 
ATOM     17  H   UNL     1     -46.481  -8.876 -27.118  0.00  0.00    +0.000 HD
ATOM     18  H   UNL     1     -46.876  -6.739 -25.506  0.00  0.00    +0.000 HD
ENDROOT
BRANCH  16  19
ATOM     19  C   UNL     1     -45.287  -5.583 -30.538  0.00  0.00    +0.000 A 
ATOM     20  C   UNL     1     -44.029  -6.011 -30.090  0.00  0.00    +0.000 A 
ATOM     21  C   UNL     1     -42.872  -5.392 -30.566  0.00  0.00    +0.000 A 
ATOM     22  N   UNL     1     -42.961  -4.373 -31.462  0.00  0.00    +0.000 NA
ATOM     23  C   UNL     1     -44.161  -3.927 -31.918  0.00  0.00    +0.000 A 
ATOM     24  C   UNL     1     -44.209  -2.875 -32.837  0.00  0.00    +0.000 A 
ATOM     25  C   UNL     1     -45.440  -2.410 -33.306  0.00  0.00    +0.000 A 
ATOM     26  C   UNL     1     -46.628  -2.995 -32.860  0.00  0.00    +0.000 A 
ATOM     27  C   UNL     1     -46.589  -4.048 -31.941  0.00  0.00    +0.000 A 
ATOM     28  C   UNL     1     -45.360  -4.524 -31.462  0.00  0.00    +0.000 A 
ENDBRANCH  16  19
BRANCH  14  29
ATOM     29  O   UNL     1     -47.021  -3.470 -28.475  0.00  0.00    +0.000 OA
ATOM     30  H   UNL     1     -47.179  -3.385 -29.394  0.00  0.00    +0.000 HD
ENDBRANCH  14  29
TORSDOF 2
ENDMDL
MODEL 2
REMARK VINA RESULT:      -6.7      2.453      6.229
REMARK  Name = ZINC000018200763
REMARK  2 active torsions:
REMARK  status: ('A' for Active; 'I' for Inactive)
REMARK    1  A    between atoms: C_14  and  O_15
REMARK    2  A    between atoms: C_17  and  C_21
REMARK                            x       y       z     vdW  Elec       q    Type
REMARK                         _______ _______ _______ _____ _____    ______ ____
ROOT
ATOM      1  C   UNL     1     -42.876  -2.407 -32.519  0.00  0.00    +0.000 C 
ATOM      2  C   UNL     1     -44.248  -1.788 -32.741  0.00  0.00    +0.000 C 
ATOM      3  C   UNL     1     -44.061  -0.450 -33.423  0.00  0.00    +0.000 C 
ATOM      4  C   UNL     1     -44.942  -1.557 -31.398  0.00  0.00    +0.000 C 
ATOM      5  C   UNL     1     -45.535  -2.811 -30.819  0.00  0.00    +0.000 C 
ATOM      6  O   UNL     1     -45.911  -2.800 -29.616  0.00  0.00    +0.000 OA
ATOM      7  C   UNL     1     -45.703  -4.035 -31.638  0.00  0.00    +0.000 C 
ATOM      8  C   UNL     1     -45.479  -3.977 -32.983  0.00  0.00    +0.000 C 
ATOM      9  C   UNL     1     -45.096  -2.683 -33.646  0.00  0.00    +0.000 C 
ATOM     10  N   UNL     1     -45.711  -5.118 -33.830  0.00  0.00    +0.000 N 
ATOM     11  C   UNL     1     -46.207  -6.313 -33.243  0.00  0.00    +0.000 A 
ATOM     12  N   UNL     1     -46.544  -7.443 -33.890  0.00  0.00    +0.000 N 
ATOM     13  N   UNL     1     -46.981  -8.301 -32.972  0.00  0.00    +0.000 NA
ATOM     14  C   UNL     1     -46.913  -7.698 -31.765  0.00  0.00    +0.000 A 
ATOM     15  C   UNL     1     -46.426  -6.423 -31.911  0.00  0.00    +0.000 A 
ATOM     16  C   UNL     1     -46.095  -5.339 -30.932  0.00  0.00    +0.000 C 
ATOM     17  H   UNL     1     -45.531  -5.071 -34.797  0.00  0.00    +0.000 HD
ATOM     18  H   UNL     1     -46.480  -7.604 -34.859  0.00  0.00    +0.000 HD
ENDROOT
BRANCH  16  19
ATOM     19  C   UNL     1     -45.017  -5.798 -29.983  0.00  0.00    +0.000 A 
ATOM     20  C   UNL     1     -43.710  -5.995 -30.450  0.00  0.00    +0.000 A 
ATOM     21  C   UNL     1     -42.714  -6.428 -29.573  0.00  0.00    +0.000 A 
ATOM     22  N   UNL     1     -43.008  -6.662 -28.267  0.00  0.00    +0.000 NA
ATOM     23  C   UNL     1     -44.263  -6.487 -27.775  0.00  0.00    +0.000 A 
ATOM     24  C   UNL     1     -44.524  -6.741 -26.426  0.00  0.00    +0.000 A 
ATOM     25  C   UNL     1     -45.813  -6.565 -25.917  0.00  0.00    +0.000 A 
ATOM     26  C   UNL     1     -46.847  -6.134 -26.753  0.00  0.00    +0.000 A 
ATOM     27  C   UNL     1     -46.594  -5.877 -28.104  0.00  0.00    +0.000 A 
ATOM     28  C   UNL     1     -45.304  -6.049 -28.628  0.00  0.00    +0.000 A 
ENDBRANCH  16  19
BRANCH  14  29
ATOM     29  O   UNL     1     -47.278  -8.302 -30.570  0.00  0.00    +0.000 OA
ATOM     30  H   UNL     1     -47.789  -9.087 -30.578  0.00  0.00    +0.000 HD
ENDBRANCH  14  29
TORSDOF 2
ENDMDL
MODEL 3
REMARK VINA RESULT:      -6.7      1.921      2.471
REMARK  Name = ZINC000018200763
REMARK  2 active torsions:
REMARK  status: ('A' for Active; 'I' for Inactive)
REMARK    1  A    between atoms: C_14  and  O_15
REMARK    2  A    between atoms: C_17  and  C_21
REMARK                            x       y       z     vdW  Elec       q    Type
REMARK                         _______ _______ _______ _____ _____    ______ ____
ROOT
ATOM      1  C   UNL     1     -44.393  -9.476 -33.376  0.00  0.00    +0.000 C 
ATOM      2  C   UNL     1     -45.792  -9.302 -33.945  0.00  0.00    +0.000 C 
ATOM      3  C   UNL     1     -46.143 -10.544 -34.735  0.00  0.00    +0.000 C 
ATOM      4  C   UNL     1     -45.828  -8.098 -34.889  0.00  0.00    +0.000 C 
ATOM      5  C   UNL     1     -45.893  -6.784 -34.164  0.00  0.00    +0.000 C 
ATOM      6  O   UNL     1     -45.679  -5.726 -34.814  0.00  0.00    +0.000 OA
ATOM      7  C   UNL     1     -46.224  -6.715 -32.719  0.00  0.00    +0.000 C 
ATOM      8  C   UNL     1     -46.647  -7.840 -32.074  0.00  0.00    +0.000 C 
ATOM      9  C   UNL     1     -46.810  -9.139 -32.815  0.00  0.00    +0.000 C 
ATOM     10  N   UNL     1     -47.060  -7.802 -30.696  0.00  0.00    +0.000 N 
ATOM     11  C   UNL     1     -47.045  -6.555 -30.015  0.00  0.00    +0.000 A 
ATOM     12  N   UNL     1     -47.461  -6.325 -28.756  0.00  0.00    +0.000 N 
ATOM     13  N   UNL     1     -47.296  -5.026 -28.523  0.00  0.00    +0.000 NA
ATOM     14  C   UNL     1     -46.781  -4.460 -29.637  0.00  0.00    +0.000 A 
ATOM     15  C   UNL     1     -46.616  -5.416 -30.608  0.00  0.00    +0.000 A 
ATOM     16  C   UNL     1     -46.048  -5.375 -31.993  0.00  0.00    +0.000 C 
ATOM     17  H   UNL     1     -47.347  -8.623 -30.235  0.00  0.00    +0.000 HD
ATOM     18  H   UNL     1     -47.820  -6.993 -28.127  0.00  0.00    +0.000 HD
ENDROOT
BRANCH  16  19
ATOM     19  C   UNL     1     -44.601  -4.954 -31.956  0.00  0.00    +0.000 A 
ATOM     20  C   UNL     1     -43.628  -5.835 -31.463  0.00  0.00    +0.000 A 
ATOM     21  C   UNL     1     -42.289  -5.441 -31.422  0.00  0.00    +0.000 A 
ATOM     22  N   UNL     1     -41.925  -4.205 -31.855  0.00  0.00    +0.000 NA
ATOM     23  C   UNL     1     -42.839  -3.321 -32.336  0.00  0.00    +0.000 A 
ATOM     24  C   UNL     1     -42.424  -2.058 -32.769  0.00  0.00    +0.000 A 
ATOM     25  C   UNL     1     -43.359  -1.145 -33.261  0.00  0.00    +0.000 A 
ATOM     26  C   UNL     1     -44.713  -1.488 -33.323  0.00  0.00    +0.000 A 
ATOM     27  C   UNL     1     -45.135  -2.749 -32.893  0.00  0.00    +0.000 A 
ATOM     28  C   UNL     1     -44.207  -3.677 -32.397  0.00  0.00    +0.000 A 
ENDBRANCH  16  19
BRANCH  14  29
ATOM     29  O   UNL     1     -46.467  -3.113 -29.753  0.00  0.00    +0.000 OA
ATOM     30  H   UNL     1     -46.545  -2.548 -29.010  0.00  0.00    +0.000 HD
ENDBRANCH  14  29
TORSDOF 2
ENDMDL
