MODEL 1
REMARK VINA RESULT:      -6.7      0.000      0.000
REMARK  Name = ZINC000021907259
REMARK  4 active torsions:
REMARK  status: ('A' for Active; 'I' for Inactive)
REMARK    1  A    between atoms: C_2  and  C_5
REMARK    2  A    between atoms: N_3  and  C_17
REMARK    3  A    between atoms: N_21  and  C_22
REMARK    4  A    between atoms: C_22  and  C_23
REMARK                            x       y       z     vdW  Elec       q    Type
REMARK                         _______ _______ _______ _____ _____    ______ ____
ROOT
ATOM      1  O   UNL     1     -46.613  -5.616 -33.124  0.00  0.00    +0.000 OA
ATOM      2  C   UNL     1     -45.537  -5.410 -32.499  0.00  0.00    +0.000 C 
ATOM      3  N   UNL     1     -45.319  -6.034 -31.226  0.00  0.00    +0.000 N 
ATOM      4  H   UNL     1     -44.477  -5.823 -30.760  0.00  0.00    +0.000 HD
ENDROOT
BRANCH   2   5
ATOM      5  C   UNL     1     -44.485  -4.525 -33.068  0.00  0.00    +0.000 A 
ATOM      6  C   UNL     1     -43.556  -5.098 -33.948  0.00  0.00    +0.000 A 
ATOM      7  C   UNL     1     -42.548  -4.324 -34.517  0.00  0.00    +0.000 A 
ATOM      8  O   UNL     1     -41.721  -4.852 -35.305  0.00  0.00    +0.000 OA
ATOM      9  N   UNL     1     -42.455  -3.002 -34.223  0.00  0.00    +0.000 N 
ATOM     10  C   UNL     1     -43.326  -2.397 -33.377  0.00  0.00    +0.000 A 
ATOM     11  C   UNL     1     -43.187  -1.033 -33.104  0.00  0.00    +0.000 A 
ATOM     12  C   UNL     1     -44.072  -0.396 -32.232  0.00  0.00    +0.000 A 
ATOM     13  C   UNL     1     -45.101  -1.121 -31.628  0.00  0.00    +0.000 A 
ATOM     14  C   UNL     1     -45.247  -2.484 -31.896  0.00  0.00    +0.000 A 
ATOM     15  C   UNL     1     -44.370  -3.143 -32.771  0.00  0.00    +0.000 A 
ATOM     16  H   UNL     1     -41.737  -2.469 -34.634  0.00  0.00    +0.000 HD
ENDBRANCH   2   5
BRANCH   3  17
ATOM     17  C   UNL     1     -46.218  -6.939 -30.572  0.00  0.00    +0.000 A 
ATOM     18  C   UNL     1     -47.185  -7.719 -31.176  0.00  0.00    +0.000 A 
ATOM     19  C   UNL     1     -47.756  -8.407 -30.110  0.00  0.00    +0.000 A 
ATOM     20  N   UNL     1     -47.154  -8.044 -28.958  0.00  0.00    +0.000 NA
ATOM     21  N   UNL     1     -46.220  -7.159 -29.250  0.00  0.00    +0.000 N 
BRANCH  21  22
ATOM     22  C   UNL     1     -45.376  -6.508 -28.256  0.00  0.00    +0.000 C 
BRANCH  22  23
ATOM     23  C   UNL     1     -46.206  -5.667 -27.338  0.00  0.00    +0.000 A 
ATOM     24  C   UNL     1     -46.874  -4.550 -27.856  0.00  0.00    +0.000 A 
ATOM     25  C   UNL     1     -47.646  -3.739 -27.021  0.00  0.00    +0.000 A 
ATOM     26  C   UNL     1     -47.756  -4.041 -25.661  0.00  0.00    +0.000 A 
ATOM     27  C   UNL     1     -47.095  -5.155 -25.138  0.00  0.00    +0.000 A 
ATOM     28  C   UNL     1     -46.320  -5.971 -25.968  0.00  0.00    +0.000 A 
ATOM     29 CL   UNL     1     -45.528  -7.372 -25.265  0.00  0.00    +0.000 Cl
ENDBRANCH  22  23
ENDBRANCH  21  22
ENDBRANCH   3  17
TORSDOF 4
ENDMDL
MODEL 2
REMARK VINA RESULT:      -6.7     11.531     14.946
REMARK  Name = ZINC000021907259
REMARK  4 active torsions:
REMARK  status: ('A' for Active; 'I' for Inactive)
REMARK    1  A    between atoms: C_2  and  C_5
REMARK    2  A    between atoms: N_3  and  C_17
REMARK    3  A    between atoms: N_21  and  C_22
REMARK    4  A    between atoms: C_22  and  C_23
REMARK                            x       y       z     vdW  Elec       q    Type
REMARK                         _______ _______ _______ _____ _____    ______ ____
ROOT
ATOM      1  O   UNL     1     -44.408 -13.738 -21.426  0.00  0.00    +0.000 OA
ATOM      2  C   UNL     1     -45.480 -14.241 -21.858  0.00  0.00    +0.000 C 
ATOM      3  N   UNL     1     -46.618 -14.352 -20.990  0.00  0.00    +0.000 N 
ATOM      4  H   UNL     1     -47.426 -14.776 -21.360  0.00  0.00    +0.000 HD
ENDROOT
BRANCH   2   5
ATOM      5  C   UNL     1     -45.584 -14.723 -23.261  0.00  0.00    +0.000 A 
ATOM      6  C   UNL     1     -45.759 -13.764 -24.269  0.00  0.00    +0.000 A 
ATOM      7  C   UNL     1     -45.860 -14.149 -25.604  0.00  0.00    +0.000 A 
ATOM      8  O   UNL     1     -46.017 -13.277 -26.498  0.00  0.00    +0.000 OA
ATOM      9  N   UNL     1     -45.791 -15.461 -25.943  0.00  0.00    +0.000 N 
ATOM     10  C   UNL     1     -45.624 -16.431 -25.008  0.00  0.00    +0.000 A 
ATOM     11  C   UNL     1     -45.562 -17.769 -25.407  0.00  0.00    +0.000 A 
ATOM     12  C   UNL     1     -45.395 -18.779 -24.457  0.00  0.00    +0.000 A 
ATOM     13  C   UNL     1     -45.292 -18.455 -23.103  0.00  0.00    +0.000 A 
ATOM     14  C   UNL     1     -45.352 -17.120 -22.696  0.00  0.00    +0.000 A 
ATOM     15  C   UNL     1     -45.517 -16.089 -23.635  0.00  0.00    +0.000 A 
ATOM     16  H   UNL     1     -45.864 -15.716 -26.890  0.00  0.00    +0.000 HD
ENDBRANCH   2   5
BRANCH   3  17
ATOM     17  C   UNL     1     -46.682 -13.897 -19.632  0.00  0.00    +0.000 A 
ATOM     18  C   UNL     1     -46.586 -12.590 -19.195  0.00  0.00    +0.000 A 
ATOM     19  C   UNL     1     -46.721 -12.700 -17.816  0.00  0.00    +0.000 A 
ATOM     20  N   UNL     1     -46.886 -13.996 -17.475  0.00  0.00    +0.000 NA
ATOM     21  N   UNL     1     -46.866 -14.712 -18.584  0.00  0.00    +0.000 N 
BRANCH  21  22
ATOM     22  C   UNL     1     -46.980 -16.163 -18.617  0.00  0.00    +0.000 C 
BRANCH  22  23
ATOM     23  C   UNL     1     -45.633 -16.788 -18.810  0.00  0.00    +0.000 A 
ATOM     24  C   UNL     1     -44.488 -16.042 -18.504  0.00  0.00    +0.000 A 
ATOM     25  C   UNL     1     -43.217 -16.593 -18.686  0.00  0.00    +0.000 A 
ATOM     26  C   UNL     1     -43.084 -17.895 -19.173  0.00  0.00    +0.000 A 
ATOM     27  C   UNL     1     -44.222 -18.647 -19.478  0.00  0.00    +0.000 A 
ATOM     28  C   UNL     1     -45.497 -18.101 -19.299  0.00  0.00    +0.000 A 
ATOM     29 CL   UNL     1     -46.895 -19.095 -19.675  0.00  0.00    +0.000 Cl
ENDBRANCH  22  23
ENDBRANCH  21  22
ENDBRANCH   3  17
TORSDOF 4
ENDMDL
MODEL 3
REMARK VINA RESULT:      -6.6      2.736      7.148
REMARK  Name = ZINC000021907259
REMARK  4 active torsions:
REMARK  status: ('A' for Active; 'I' for Inactive)
REMARK    1  A    between atoms: C_2  and  C_5
REMARK    2  A    between atoms: N_3  and  C_17
REMARK    3  A    between atoms: N_21  and  C_22
REMARK    4  A    between atoms: C_22  and  C_23
REMARK                            x       y       z     vdW  Elec       q    Type
REMARK                         _______ _______ _______ _____ _____    ______ ____
ROOT
ATOM      1  O   UNL     1     -47.678  -6.706 -29.954  0.00  0.00    +0.000 OA
ATOM      2  C   UNL     1     -46.601  -6.451 -29.350  0.00  0.00    +0.000 C 
ATOM      3  N   UNL     1     -45.458  -5.996 -30.087  0.00  0.00    +0.000 N 
ATOM      4  H   UNL     1     -44.630  -5.835 -29.579  0.00  0.00    +0.000 HD
ENDROOT
BRANCH   2   5
ATOM      5  C   UNL     1     -46.501  -6.614 -27.875  0.00  0.00    +0.000 A 
ATOM      6  C   UNL     1     -46.115  -7.869 -27.382  0.00  0.00    +0.000 A 
ATOM      7  C   UNL     1     -45.999  -8.087 -26.011  0.00  0.00    +0.000 A 
ATOM      8  O   UNL     1     -45.652  -9.219 -25.584  0.00  0.00    +0.000 OA
ATOM      9  N   UNL     1     -46.259  -7.083 -25.136  0.00  0.00    +0.000 N 
ATOM     10  C   UNL     1     -46.637  -5.850 -25.558  0.00  0.00    +0.000 A 
ATOM     11  C   UNL     1     -46.897  -4.850 -24.617  0.00  0.00    +0.000 A 
ATOM     12  C   UNL     1     -47.292  -3.577 -25.034  0.00  0.00    +0.000 A 
ATOM     13  C   UNL     1     -47.430  -3.300 -26.396  0.00  0.00    +0.000 A 
ATOM     14  C   UNL     1     -47.171  -4.293 -27.343  0.00  0.00    +0.000 A 
ATOM     15  C   UNL     1     -46.771  -5.579 -26.944  0.00  0.00    +0.000 A 
ATOM     16  H   UNL     1     -46.172  -7.254 -24.171  0.00  0.00    +0.000 HD
ENDBRANCH   2   5
BRANCH   3  17
ATOM     17  C   UNL     1     -45.415  -5.753 -31.499  0.00  0.00    +0.000 A 
ATOM     18  C   UNL     1     -45.490  -6.702 -32.501  0.00  0.00    +0.000 A 
ATOM     19  C   UNL     1     -45.415  -5.947 -33.667  0.00  0.00    +0.000 A 
ATOM     20  N   UNL     1     -45.302  -4.638 -33.356  0.00  0.00    +0.000 NA
ATOM     21  N   UNL     1     -45.308  -4.532 -32.040  0.00  0.00    +0.000 N 
BRANCH  21  22
ATOM     22  C   UNL     1     -45.170  -3.270 -31.325  0.00  0.00    +0.000 C 
BRANCH  22  23
ATOM     23  C   UNL     1     -44.118  -2.421 -31.966  0.00  0.00    +0.000 A 
ATOM     24  C   UNL     1     -44.476  -1.169 -32.482  0.00  0.00    +0.000 A 
ATOM     25  C   UNL     1     -43.518  -0.359 -33.097  0.00  0.00    +0.000 A 
ATOM     26  C   UNL     1     -42.195  -0.796 -33.199  0.00  0.00    +0.000 A 
ATOM     27  C   UNL     1     -41.830  -2.042 -32.683  0.00  0.00    +0.000 A 
ATOM     28  C   UNL     1     -42.783  -2.858 -32.067  0.00  0.00    +0.000 A 
ATOM     29 CL   UNL     1     -42.267  -4.405 -31.415  0.00  0.00    +0.000 Cl
ENDBRANCH  22  23
ENDBRANCH  21  22
ENDBRANCH   3  17
TORSDOF 4
ENDMDL
