MODEL 1
REMARK VINA RESULT:      -5.9      0.000      0.000
REMARK  Name = ZINC000012786823
REMARK  2 active torsions:
REMARK  status: ('A' for Active; 'I' for Inactive)
REMARK    1  A    between atoms: C_1  and  C_15
REMARK    2  A    between atoms: N_13  and  C_21
REMARK                            x       y       z     vdW  Elec       q    Type
REMARK                         _______ _______ _______ _____ _____    ______ ____
ROOT
ATOM      1  C   UNL     1     -43.729  -4.727 -32.608  0.00  0.00    +0.000 A 
ATOM      2  C   UNL     1     -42.549  -5.468 -32.468  0.00  0.00    +0.000 A 
ATOM      3  C   UNL     1     -41.331  -4.821 -32.258  0.00  0.00    +0.000 A 
ATOM      4  O   UNL     1     -40.277  -5.496 -32.129  0.00  0.00    +0.000 OA
ATOM      5  N   UNL     1     -41.280  -3.466 -32.192  0.00  0.00    +0.000 N 
ATOM      6  C   UNL     1     -42.397  -2.704 -32.326  0.00  0.00    +0.000 A 
ATOM      7  C   UNL     1     -42.297  -1.312 -32.246  0.00  0.00    +0.000 A 
ATOM      8  C   UNL     1     -43.440  -0.518 -32.371  0.00  0.00    +0.000 A 
ATOM      9  C   UNL     1     -44.687  -1.114 -32.575  0.00  0.00    +0.000 A 
ATOM     10  C   UNL     1     -44.795  -2.504 -32.658  0.00  0.00    +0.000 A 
ATOM     11  C   UNL     1     -43.655  -3.316 -32.541  0.00  0.00    +0.000 A 
ATOM     12  H   UNL     1     -40.413  -3.024 -32.044  0.00  0.00    +0.000 HD
ENDROOT
BRANCH   1  15
ATOM     13  N   UNL     1     -45.746  -6.069 -31.797  0.00  0.00    +0.000 N 
ATOM     14  C   UNL     1     -46.802  -7.022 -32.121  0.00  0.00    +0.000 C 
ATOM     15  C   UNL     1     -45.002  -5.448 -32.863  0.00  0.00    +0.000 C 
ATOM     16  O   UNL     1     -45.432  -5.534 -34.046  0.00  0.00    +0.000 OA
BRANCH  13  21
ATOM     17  C   UNL     1     -46.424  -7.327 -27.191  0.00  0.00    +0.000 C 
ATOM     18  C   UNL     1     -45.706  -6.019 -27.483  0.00  0.00    +0.000 C 
ATOM     19  C   UNL     1     -46.615  -5.043 -28.237  0.00  0.00    +0.000 C 
ATOM     20  C   UNL     1     -46.860  -5.496 -29.675  0.00  0.00    +0.000 C 
ATOM     21  C   UNL     1     -45.530  -5.679 -30.403  0.00  0.00    +0.000 C 
ATOM     22  C   UNL     1     -44.658  -6.706 -29.682  0.00  0.00    +0.000 C 
ATOM     23  C   UNL     1     -44.399  -6.260 -28.244  0.00  0.00    +0.000 C 
ENDBRANCH  13  21
ENDBRANCH   1  15
TORSDOF 2
ENDMDL
MODEL 2
REMARK VINA RESULT:      -5.9      5.472      7.656
REMARK  Name = ZINC000012786823
REMARK  2 active torsions:
REMARK  status: ('A' for Active; 'I' for Inactive)
REMARK    1  A    between atoms: C_1  and  C_15
REMARK    2  A    between atoms: N_13  and  C_21
REMARK                            x       y       z     vdW  Elec       q    Type
REMARK                         _______ _______ _______ _____ _____    ______ ____
ROOT
ATOM      1  C   UNL     1     -46.938  -5.659 -25.597  0.00  0.00    +0.000 A 
ATOM      2  C   UNL     1     -47.042  -5.396 -26.969  0.00  0.00    +0.000 A 
ATOM      3  C   UNL     1     -47.221  -4.090 -27.425  0.00  0.00    +0.000 A 
ATOM      4  O   UNL     1     -47.309  -3.864 -28.659  0.00  0.00    +0.000 OA
ATOM      5  N   UNL     1     -47.303  -3.064 -26.541  0.00  0.00    +0.000 N 
ATOM      6  C   UNL     1     -47.212  -3.269 -25.201  0.00  0.00    +0.000 A 
ATOM      7  C   UNL     1     -47.296  -2.180 -24.328  0.00  0.00    +0.000 A 
ATOM      8  C   UNL     1     -47.194  -2.377 -22.949  0.00  0.00    +0.000 A 
ATOM      9  C   UNL     1     -47.005  -3.663 -22.437  0.00  0.00    +0.000 A 
ATOM     10  C   UNL     1     -46.922  -4.757 -23.303  0.00  0.00    +0.000 A 
ATOM     11  C   UNL     1     -47.030  -4.577 -24.691  0.00  0.00    +0.000 A 
ATOM     12  H   UNL     1     -47.430  -2.148 -26.878  0.00  0.00    +0.000 HD
ENDROOT
BRANCH   1  15
ATOM     13  N   UNL     1     -45.553  -7.792 -25.355  0.00  0.00    +0.000 N 
ATOM     14  C   UNL     1     -45.542  -9.242 -25.191  0.00  0.00    +0.000 C 
ATOM     15  C   UNL     1     -46.779  -7.066 -25.147  0.00  0.00    +0.000 C 
ATOM     16  O   UNL     1     -47.750  -7.642 -24.585  0.00  0.00    +0.000 OA
BRANCH  13  21
ATOM     17  C   UNL     1     -40.938  -8.301 -26.658  0.00  0.00    +0.000 C 
ATOM     18  C   UNL     1     -41.458  -6.900 -26.378  0.00  0.00    +0.000 C 
ATOM     19  C   UNL     1     -41.916  -6.757 -24.924  0.00  0.00    +0.000 C 
ATOM     20  C   UNL     1     -43.203  -7.537 -24.658  0.00  0.00    +0.000 C 
ATOM     21  C   UNL     1     -44.299  -7.088 -25.624  0.00  0.00    +0.000 C 
ATOM     22  C   UNL     1     -43.859  -7.299 -27.072  0.00  0.00    +0.000 C 
ATOM     23  C   UNL     1     -42.576  -6.518 -27.352  0.00  0.00    +0.000 C 
ENDBRANCH  13  21
ENDBRANCH   1  15
TORSDOF 2
ENDMDL
MODEL 3
REMARK VINA RESULT:      -5.9      1.661      3.040
REMARK  Name = ZINC000012786823
REMARK  2 active torsions:
REMARK  status: ('A' for Active; 'I' for Inactive)
REMARK    1  A    between atoms: C_1  and  C_15
REMARK    2  A    between atoms: N_13  and  C_21
REMARK                            x       y       z     vdW  Elec       q    Type
REMARK                         _______ _______ _______ _____ _____    ______ ____
ROOT
ATOM      1  C   UNL     1     -44.429  -4.675 -32.946  0.00  0.00    +0.000 A 
ATOM      2  C   UNL     1     -45.756  -4.840 -33.364  0.00  0.00    +0.000 A 
ATOM      3  C   UNL     1     -46.557  -3.728 -33.624  0.00  0.00    +0.000 A 
ATOM      4  O   UNL     1     -47.746  -3.887 -34.003  0.00  0.00    +0.000 OA
ATOM      5  N   UNL     1     -46.058  -2.475 -33.468  0.00  0.00    +0.000 N 
ATOM      6  C   UNL     1     -44.779  -2.264 -33.061  0.00  0.00    +0.000 A 
ATOM      7  C   UNL     1     -44.306  -0.956 -32.920  0.00  0.00    +0.000 A 
ATOM      8  C   UNL     1     -42.989  -0.726 -32.512  0.00  0.00    +0.000 A 
ATOM      9  C   UNL     1     -42.140  -1.803 -32.247  0.00  0.00    +0.000 A 
ATOM     10  C   UNL     1     -42.606  -3.114 -32.384  0.00  0.00    +0.000 A 
ATOM     11  C   UNL     1     -43.928  -3.362 -32.785  0.00  0.00    +0.000 A 
ATOM     12  H   UNL     1     -46.636  -1.700 -33.655  0.00  0.00    +0.000 HD
ENDROOT
BRANCH   1  15
ATOM     13  N   UNL     1     -43.610  -6.486 -31.341  0.00  0.00    +0.000 N 
ATOM     14  C   UNL     1     -42.575  -7.458 -31.006  0.00  0.00    +0.000 C 
ATOM     15  C   UNL     1     -43.616  -5.881 -32.649  0.00  0.00    +0.000 C 
ATOM     16  O   UNL     1     -42.898  -6.376 -33.561  0.00  0.00    +0.000 OA
BRANCH  13  21
ATOM     17  C   UNL     1     -46.144  -8.270 -27.646  0.00  0.00    +0.000 C 
ATOM     18  C   UNL     1     -46.474  -6.869 -28.138  0.00  0.00    +0.000 C 
ATOM     19  C   UNL     1     -46.963  -6.891 -29.589  0.00  0.00    +0.000 C 
ATOM     20  C   UNL     1     -45.831  -7.214 -30.562  0.00  0.00    +0.000 C 
ATOM     21  C   UNL     1     -44.685  -6.220 -30.385  0.00  0.00    +0.000 C 
ATOM     22  C   UNL     1     -44.157  -6.255 -28.952  0.00  0.00    +0.000 C 
ATOM     23  C   UNL     1     -45.280  -5.926 -27.969  0.00  0.00    +0.000 C 
ENDBRANCH  13  21
ENDBRANCH   1  15
TORSDOF 2
ENDMDL
