MODEL 1
REMARK VINA RESULT:      -6.7      0.000      0.000
REMARK  Name = ZINC000006817944 PubChem-92315719
REMARK  5 active torsions:
REMARK  status: ('A' for Active; 'I' for Inactive)
REMARK    1  A    between atoms: C_2  and  O_21
REMARK    2  A    between atoms: C_5  and  C_8
REMARK    3  A    between atoms: C_12  and  C_13
REMARK    4  A    between atoms: C_15  and  O_25
REMARK    5  A    between atoms: C_16  and  O_24
REMARK                            x       y       z     vdW  Elec       q    Type
REMARK                         _______ _______ _______ _____ _____    ______ ____
ROOT
ATOM      1  C   UNL     1     -47.088  -4.747 -31.111  0.00  0.00    +0.000 C 
ATOM      2  C   UNL     1     -46.980  -6.227 -31.505  0.00  0.00    +0.000 C 
ATOM      3  C   UNL     1     -46.046  -6.957 -30.595  0.00  0.00    +0.000 C 
ATOM      4  C   UNL     1     -46.559  -5.337 -28.796  0.00  0.00    +0.000 C 
ATOM      5  C   UNL     1     -47.188  -3.892 -26.786  0.00  0.00    +0.000 C 
ATOM      6  O   UNL     1     -45.409  -7.960 -31.010  0.00  0.00    +0.000 OA
ATOM      7  O   UNL     1     -47.756  -3.016 -27.494  0.00  0.00    +0.000 OA
ATOM      8  N   UNL     1     -45.903  -6.526 -29.242  0.00  0.00    +0.000 NA
ATOM      9  N   UNL     1     -47.132  -4.544 -29.657  0.00  0.00    +0.000 NA
ATOM     10  N   UNL     1     -46.587  -5.044 -27.395  0.00  0.00    +0.000 NA
ENDROOT
BRANCH   1  14
ATOM     11  C   UNL     1     -43.973  -2.351 -32.877  0.00  0.00    +0.000 A 
ATOM     12  C   UNL     1     -44.436  -3.490 -33.542  0.00  0.00    +0.000 A 
ATOM     13  C   UNL     1     -45.446  -4.275 -32.977  0.00  0.00    +0.000 A 
ATOM     14  C   UNL     1     -46.000  -3.928 -31.736  0.00  0.00    +0.000 A 
ATOM     15  C   UNL     1     -45.539  -2.787 -31.071  0.00  0.00    +0.000 A 
ATOM     16  C   UNL     1     -44.531  -2.002 -31.636  0.00  0.00    +0.000 A 
BRANCH  11  18
ATOM     17  C   UNL     1     -42.213  -0.617 -32.747  0.00  0.00    +0.000 C 
ATOM     18  O   UNL     1     -42.963  -1.586 -33.468  0.00  0.00    +0.000 OA
ENDBRANCH  11  18
ENDBRANCH   1  14
BRANCH   5  19
ATOM     19  C   UNL     1     -47.140  -3.730 -25.322  0.00  0.00    +0.000 A 
ATOM     20  C   UNL     1     -47.042  -4.852 -24.490  0.00  0.00    +0.000 A 
ATOM     21  C   UNL     1     -46.996  -4.711 -23.092  0.00  0.00    +0.000 A 
ATOM     22  C   UNL     1     -47.048  -3.430 -22.523  0.00  0.00    +0.000 A 
ATOM     23  C   UNL     1     -47.145  -2.305 -23.359  0.00  0.00    +0.000 A 
ATOM     24  C   UNL     1     -47.190  -2.455 -24.746  0.00  0.00    +0.000 A 
BRANCH  22  26
ATOM     25  C   UNL     1     -45.783  -3.147 -20.413  0.00  0.00    +0.000 C 
ATOM     26  O   UNL     1     -47.000  -3.296 -21.132  0.00  0.00    +0.000 OA
ENDBRANCH  22  26
BRANCH  21  28
ATOM     27  C   UNL     1     -46.437  -7.093 -22.709  0.00  0.00    +0.000 C 
ATOM     28  O   UNL     1     -46.898  -5.827 -22.255  0.00  0.00    +0.000 OA
ENDBRANCH  21  28
ENDBRANCH   5  19
TORSDOF 5
ENDMDL
MODEL 2
REMARK VINA RESULT:      -6.2      9.389     14.215
REMARK  Name = ZINC000006817944 PubChem-92315719
REMARK  5 active torsions:
REMARK  status: ('A' for Active; 'I' for Inactive)
REMARK    1  A    between atoms: C_2  and  O_21
REMARK    2  A    between atoms: C_5  and  C_8
REMARK    3  A    between atoms: C_12  and  C_13
REMARK    4  A    between atoms: C_15  and  O_25
REMARK    5  A    between atoms: C_16  and  O_24
REMARK                            x       y       z     vdW  Elec       q    Type
REMARK                         _______ _______ _______ _____ _____    ______ ____
ROOT
ATOM      1  C   UNL     1     -43.668 -17.769 -23.762  0.00  0.00    +0.000 C 
ATOM      2  C   UNL     1     -43.696 -19.190 -24.342  0.00  0.00    +0.000 C 
ATOM      3  C   UNL     1     -44.881 -19.382 -25.232  0.00  0.00    +0.000 C 
ATOM      4  C   UNL     1     -44.884 -16.958 -25.724  0.00  0.00    +0.000 C 
ATOM      5  C   UNL     1     -44.845 -14.528 -26.512  0.00  0.00    +0.000 C 
ATOM      6  O   UNL     1     -45.394 -20.523 -25.369  0.00  0.00    +0.000 OA
ATOM      7  O   UNL     1     -44.064 -14.160 -25.591  0.00  0.00    +0.000 OA
ATOM      8  N   UNL     1     -45.411 -18.268 -25.947  0.00  0.00    +0.000 NA
ATOM      9  N   UNL     1     -44.056 -16.745 -24.741  0.00  0.00    +0.000 NA
ATOM     10  N   UNL     1     -45.269 -15.896 -26.604  0.00  0.00    +0.000 NA
ENDROOT
BRANCH   1  14
ATOM     11  C   UNL     1     -46.033 -17.411 -20.178  0.00  0.00    +0.000 A 
ATOM     12  C   UNL     1     -45.535 -18.661 -20.563  0.00  0.00    +0.000 A 
ATOM     13  C   UNL     1     -44.768 -18.788 -21.725  0.00  0.00    +0.000 A 
ATOM     14  C   UNL     1     -44.493 -17.663 -22.516  0.00  0.00    +0.000 A 
ATOM     15  C   UNL     1     -44.988 -16.412 -22.132  0.00  0.00    +0.000 A 
ATOM     16  C   UNL     1     -45.753 -16.285 -20.969  0.00  0.00    +0.000 A 
BRANCH  11  18
ATOM     17  C   UNL     1     -47.260 -16.076 -18.496  0.00  0.00    +0.000 C 
ATOM     18  O   UNL     1     -46.796 -17.317 -19.011  0.00  0.00    +0.000 OA
ENDBRANCH  11  18
ENDBRANCH   1  14
BRANCH   5  19
ATOM     19  C   UNL     1     -45.325 -13.545 -27.500  0.00  0.00    +0.000 A 
ATOM     20  C   UNL     1     -45.651 -12.244 -27.101  0.00  0.00    +0.000 A 
ATOM     21  C   UNL     1     -46.110 -11.298 -28.034  0.00  0.00    +0.000 A 
ATOM     22  C   UNL     1     -46.242 -11.663 -29.383  0.00  0.00    +0.000 A 
ATOM     23  C   UNL     1     -45.914 -12.969 -29.782  0.00  0.00    +0.000 A 
ATOM     24  C   UNL     1     -45.459 -13.901 -28.848  0.00  0.00    +0.000 A 
BRANCH  22  26
ATOM     25  C   UNL     1     -45.827 -10.000 -31.169  0.00  0.00    +0.000 C 
ATOM     26  O   UNL     1     -46.699 -10.717 -30.306  0.00  0.00    +0.000 OA
ENDBRANCH  22  26
BRANCH  21  28
ATOM     27  C   UNL     1     -47.280  -9.715 -26.533  0.00  0.00    +0.000 C 
ATOM     28  O   UNL     1     -46.438  -9.996 -27.644  0.00  0.00    +0.000 OA
ENDBRANCH  21  28
ENDBRANCH   5  19
TORSDOF 5
ENDMDL
MODEL 3
REMARK VINA RESULT:      -6.2     11.210     16.279
REMARK  Name = ZINC000006817944 PubChem-92315719
REMARK  5 active torsions:
REMARK  status: ('A' for Active; 'I' for Inactive)
REMARK    1  A    between atoms: C_2  and  O_21
REMARK    2  A    between atoms: C_5  and  C_8
REMARK    3  A    between atoms: C_12  and  C_13
REMARK    4  A    between atoms: C_15  and  O_25
REMARK    5  A    between atoms: C_16  and  O_24
REMARK                            x       y       z     vdW  Elec       q    Type
REMARK                         _______ _______ _______ _____ _____    ______ ____
ROOT
ATOM      1  C   UNL     1     -45.912 -18.469 -20.205  0.00  0.00    +0.000 C 
ATOM      2  C   UNL     1     -46.411 -17.568 -19.066  0.00  0.00    +0.000 C 
ATOM      3  C   UNL     1     -45.829 -16.196 -19.174  0.00  0.00    +0.000 C 
ATOM      4  C   UNL     1     -45.619 -16.495 -21.621  0.00  0.00    +0.000 C 
ATOM      5  C   UNL     1     -45.581 -16.574 -24.174  0.00  0.00    +0.000 C 
ATOM      6  O   UNL     1     -45.651 -15.499 -18.142  0.00  0.00    +0.000 OA
ATOM      7  O   UNL     1     -45.766 -17.822 -24.216  0.00  0.00    +0.000 OA
ATOM      8  N   UNL     1     -45.500 -15.671 -20.458  0.00  0.00    +0.000 NA
ATOM      9  N   UNL     1     -45.844 -17.772 -21.496  0.00  0.00    +0.000 NA
ATOM     10  N   UNL     1     -45.500 -15.892 -22.914  0.00  0.00    +0.000 NA
ENDROOT
BRANCH   1  14
ATOM     11  C   UNL     1     -42.129 -20.318 -19.292  0.00  0.00    +0.000 A 
ATOM     12  C   UNL     1     -43.117 -20.229 -18.306  0.00  0.00    +0.000 A 
ATOM     13  C   UNL     1     -44.347 -19.630 -18.591  0.00  0.00    +0.000 A 
ATOM     14  C   UNL     1     -44.600 -19.110 -19.869  0.00  0.00    +0.000 A 
ATOM     15  C   UNL     1     -43.614 -19.200 -20.858  0.00  0.00    +0.000 A 
ATOM     16  C   UNL     1     -42.385 -19.800 -20.572  0.00  0.00    +0.000 A 
BRANCH  11  18
ATOM     17  C   UNL     1     -40.727 -22.332 -18.982  0.00  0.00    +0.000 C 
ATOM     18  O   UNL     1     -40.909 -20.923 -18.976  0.00  0.00    +0.000 OA
ENDBRANCH  11  18
ENDBRANCH   1  14
BRANCH   5  19
ATOM     19  C   UNL     1     -45.445 -15.812 -25.428  0.00  0.00    +0.000 A 
ATOM     20  C   UNL     1     -46.253 -14.695 -25.667  0.00  0.00    +0.000 A 
ATOM     21  C   UNL     1     -46.133 -13.960 -26.859  0.00  0.00    +0.000 A 
ATOM     22  C   UNL     1     -45.190 -14.351 -27.822  0.00  0.00    +0.000 A 
ATOM     23  C   UNL     1     -44.380 -15.473 -27.581  0.00  0.00    +0.000 A 
ATOM     24  C   UNL     1     -44.506 -16.196 -26.394  0.00  0.00    +0.000 A 
BRANCH  22  26
ATOM     25  C   UNL     1     -43.971 -12.764 -29.279  0.00  0.00    +0.000 C 
ATOM     26  O   UNL     1     -45.076 -13.615 -29.006  0.00  0.00    +0.000 OA
ENDBRANCH  22  26
BRANCH  21  28
ATOM     27  C   UNL     1     -46.629 -11.547 -26.606  0.00  0.00    +0.000 C 
ATOM     28  O   UNL     1     -46.937 -12.842 -27.105  0.00  0.00    +0.000 OA
ENDBRANCH  21  28
ENDBRANCH   5  19
TORSDOF 5
ENDMDL
