MODEL 1
REMARK VINA RESULT:      -7.7      0.000      0.000
REMARK  Name = ZINC000008996339
REMARK  4 active torsions:
REMARK  status: ('A' for Active; 'I' for Inactive)
REMARK    1  A    between atoms: C_4  and  O_5
REMARK    2  A    between atoms: C_6  and  C_22
REMARK    3  A    between atoms: C_7  and  C_9
REMARK    4  A    between atoms: C_22  and  C_24
REMARK                            x       y       z     vdW  Elec       q    Type
REMARK                         _______ _______ _______ _____ _____    ______ ____
ROOT
ATOM      1  N   UNL     1     -45.479 -14.790 -25.669  0.00  0.00    +0.000 N 
ATOM      2  C   UNL     1     -44.758 -15.526 -26.644  0.00  0.00    +0.000 C 
ATOM      3  O   UNL     1     -44.226 -15.026 -27.670  0.00  0.00    +0.000 OA
ATOM      4  C   UNL     1     -44.744 -16.920 -26.288  0.00  0.00    +0.000 C 
ATOM      5  C   UNL     1     -45.423 -17.082 -25.151  0.00  0.00    +0.000 C 
ATOM      6  C   UNL     1     -45.926 -15.740 -24.647  0.00  0.00    +0.000 C 
ATOM      7  C   UNL     1     -45.629  -9.857 -25.226  0.00  0.00    +0.000 C 
ATOM      8  C   UNL     1     -45.917 -11.276 -25.559  0.00  0.00    +0.000 A 
ATOM      9  C   UNL     1     -45.141 -12.358 -25.191  0.00  0.00    +0.000 A 
ATOM     10  C   UNL     1     -45.852 -13.407 -25.750  0.00  0.00    +0.000 A 
ATOM     11  N   UNL     1     -46.951 -12.966 -26.391  0.00  0.00    +0.000 NA
ATOM     12  O   UNL     1     -46.955 -11.675 -26.255  0.00  0.00    +0.000 OA
ENDROOT
BRANCH   6  13
ATOM     13  C   UNL     1     -45.329 -15.394 -23.310  0.00  0.00    +0.000 A 
ATOM     14  C   UNL     1     -46.179 -15.089 -22.242  0.00  0.00    +0.000 A 
ATOM     15  C   UNL     1     -45.649 -14.754 -20.994  0.00  0.00    +0.000 A 
ATOM     16  C   UNL     1     -44.264 -14.719 -20.809  0.00  0.00    +0.000 A 
ATOM     17  C   UNL     1     -43.700 -14.364 -19.481  0.00  0.00    +0.000 C 
ATOM     18  C   UNL     1     -43.409 -15.015 -21.874  0.00  0.00    +0.000 A 
ATOM     19  C   UNL     1     -43.938 -15.350 -23.123  0.00  0.00    +0.000 A 
ENDBRANCH   6  13
BRANCH   4  20
ATOM     20  O   UNL     1     -44.141 -17.932 -27.026  0.00  0.00    +0.000 OA
ATOM     21  H   UNL     1     -43.258 -17.831 -27.324  0.00  0.00    +0.000 HD
ENDBRANCH   4  20
BRANCH   5  22
ATOM     22  C   UNL     1     -45.649 -18.384 -24.483  0.00  0.00    +0.000 C 
ATOM     23  O   UNL     1     -46.276 -19.295 -25.087  0.00  0.00    +0.000 OA
BRANCH  22  24
ATOM     24  C   UNL     1     -45.152 -18.645 -23.120  0.00  0.00    +0.000 A 
ATOM     25  C   UNL     1     -43.861 -19.088 -22.820  0.00  0.00    +0.000 A 
ATOM     26  C   UNL     1     -43.884 -19.182 -21.445  0.00  0.00    +0.000 A 
ATOM     27  C   UNL     1     -42.883 -19.569 -20.557  0.00  0.00    +0.000 A 
ATOM     28  C   UNL     1     -43.194 -19.570 -19.185  0.00  0.00    +0.000 A 
ATOM     29  C   UNL     1     -44.479 -19.189 -18.741  0.00  0.00    +0.000 A 
ATOM     30  C   UNL     1     -45.469 -18.803 -19.662  0.00  0.00    +0.000 A 
ATOM     31  C   UNL     1     -45.128 -18.814 -21.013  0.00  0.00    +0.000 A 
ATOM     32  O   UNL     1     -45.882 -18.497 -22.030  0.00  0.00    +0.000 OA
ENDBRANCH  22  24
ENDBRANCH   5  22
TORSDOF 4
ENDMDL
MODEL 2
REMARK VINA RESULT:      -7.1      3.650      7.069
REMARK  Name = ZINC000008996339
REMARK  4 active torsions:
REMARK  status: ('A' for Active; 'I' for Inactive)
REMARK    1  A    between atoms: C_4  and  O_5
REMARK    2  A    between atoms: C_6  and  C_22
REMARK    3  A    between atoms: C_7  and  C_9
REMARK    4  A    between atoms: C_22  and  C_24
REMARK                            x       y       z     vdW  Elec       q    Type
REMARK                         _______ _______ _______ _____ _____    ______ ____
ROOT
ATOM      1  N   UNL     1     -42.899 -19.860 -21.789  0.00  0.00    +0.000 N 
ATOM      2  C   UNL     1     -42.425 -19.493 -20.503  0.00  0.00    +0.000 C 
ATOM      3  O   UNL     1     -41.250 -19.684 -20.091  0.00  0.00    +0.000 OA
ATOM      4  C   UNL     1     -43.491 -18.891 -19.745  0.00  0.00    +0.000 C 
ATOM      5  C   UNL     1     -44.594 -18.874 -20.494  0.00  0.00    +0.000 C 
ATOM      6  C   UNL     1     -44.308 -19.464 -21.864  0.00  0.00    +0.000 C 
ATOM      7  C   UNL     1     -40.133 -21.279 -25.647  0.00  0.00    +0.000 C 
ATOM      8  C   UNL     1     -40.994 -21.242 -24.436  0.00  0.00    +0.000 A 
ATOM      9  C   UNL     1     -41.456 -20.096 -23.818  0.00  0.00    +0.000 A 
ATOM     10  C   UNL     1     -42.189 -20.628 -22.770  0.00  0.00    +0.000 A 
ATOM     11  N   UNL     1     -42.154 -21.974 -22.783  0.00  0.00    +0.000 NA
ATOM     12  O   UNL     1     -41.422 -22.307 -23.802  0.00  0.00    +0.000 OA
ENDROOT
BRANCH   6  13
ATOM     13  C   UNL     1     -44.511 -18.448 -22.955  0.00  0.00    +0.000 A 
ATOM     14  C   UNL     1     -45.484 -18.683 -23.932  0.00  0.00    +0.000 A 
ATOM     15  C   UNL     1     -45.685 -17.760 -24.962  0.00  0.00    +0.000 A 
ATOM     16  C   UNL     1     -44.908 -16.600 -25.021  0.00  0.00    +0.000 A 
ATOM     17  C   UNL     1     -45.123 -15.618 -26.116  0.00  0.00    +0.000 C 
ATOM     18  C   UNL     1     -43.928 -16.363 -24.053  0.00  0.00    +0.000 A 
ATOM     19  C   UNL     1     -43.727 -17.285 -23.023  0.00  0.00    +0.000 A 
ENDBRANCH   6  13
BRANCH   4  20
ATOM     20  O   UNL     1     -43.385 -18.428 -18.439  0.00  0.00    +0.000 OA
ATOM     21  H   UNL     1     -42.965 -18.955 -17.788  0.00  0.00    +0.000 HD
ENDBRANCH   4  20
BRANCH   5  22
ATOM     22  C   UNL     1     -45.906 -18.352 -20.047  0.00  0.00    +0.000 C 
ATOM     23  O   UNL     1     -46.845 -19.155 -19.797  0.00  0.00    +0.000 OA
BRANCH  22  24
ATOM     24  C   UNL     1     -46.144 -16.907 -19.882  0.00  0.00    +0.000 A 
ATOM     25  C   UNL     1     -46.459 -16.290 -18.667  0.00  0.00    +0.000 A 
ATOM     26  C   UNL     1     -46.583 -14.964 -19.023  0.00  0.00    +0.000 A 
ATOM     27  C   UNL     1     -46.884 -13.852 -18.241  0.00  0.00    +0.000 A 
ATOM     28  C   UNL     1     -46.945 -12.602 -18.883  0.00  0.00    +0.000 A 
ATOM     29  C   UNL     1     -46.706 -12.496 -20.271  0.00  0.00    +0.000 A 
ATOM     30  C   UNL     1     -46.405 -13.638 -21.034  0.00  0.00    +0.000 A 
ATOM     31  C   UNL     1     -46.353 -14.860 -20.367  0.00  0.00    +0.000 A 
ATOM     32  O   UNL     1     -46.093 -16.035 -20.872  0.00  0.00    +0.000 OA
ENDBRANCH  22  24
ENDBRANCH   5  22
TORSDOF 4
ENDMDL
MODEL 3
REMARK VINA RESULT:      -7.1      7.380     13.794
REMARK  Name = ZINC000008996339
REMARK  4 active torsions:
REMARK  status: ('A' for Active; 'I' for Inactive)
REMARK    1  A    between atoms: C_4  and  O_5
REMARK    2  A    between atoms: C_6  and  C_22
REMARK    3  A    between atoms: C_7  and  C_9
REMARK    4  A    between atoms: C_22  and  C_24
REMARK                            x       y       z     vdW  Elec       q    Type
REMARK                         _______ _______ _______ _____ _____    ______ ____
ROOT
ATOM      1  N   UNL     1     -46.428  -6.552 -26.739  0.00  0.00    +0.000 N 
ATOM      2  C   UNL     1     -46.814  -5.220 -26.442  0.00  0.00    +0.000 C 
ATOM      3  O   UNL     1     -46.988  -4.767 -25.280  0.00  0.00    +0.000 OA
ATOM      4  C   UNL     1     -46.991  -4.481 -27.664  0.00  0.00    +0.000 C 
ATOM      5  C   UNL     1     -46.740  -5.288 -28.696  0.00  0.00    +0.000 C 
ATOM      6  C   UNL     1     -46.337  -6.665 -28.197  0.00  0.00    +0.000 C 
ATOM      7  C   UNL     1     -44.735  -9.911 -23.515  0.00  0.00    +0.000 C 
ATOM      8  C   UNL     1     -45.584  -9.085 -24.412  0.00  0.00    +0.000 A 
ATOM      9  C   UNL     1     -45.140  -8.034 -25.191  0.00  0.00    +0.000 A 
ATOM     10  C   UNL     1     -46.315  -7.634 -25.805  0.00  0.00    +0.000 A 
ATOM     11  N   UNL     1     -47.355  -8.393 -25.412  0.00  0.00    +0.000 NA
ATOM     12  O   UNL     1     -46.875  -9.257 -24.570  0.00  0.00    +0.000 OA
ENDROOT
BRANCH   6  13
ATOM     13  C   UNL     1     -44.933  -7.011 -28.611  0.00  0.00    +0.000 A 
ATOM     14  C   UNL     1     -43.880  -6.179 -28.211  0.00  0.00    +0.000 A 
ATOM     15  C   UNL     1     -42.568  -6.473 -28.592  0.00  0.00    +0.000 A 
ATOM     16  C   UNL     1     -42.303  -7.597 -29.378  0.00  0.00    +0.000 A 
ATOM     17  C   UNL     1     -40.907  -7.909 -29.782  0.00  0.00    +0.000 C 
ATOM     18  C   UNL     1     -43.351  -8.427 -29.788  0.00  0.00    +0.000 A 
ATOM     19  C   UNL     1     -44.663  -8.134 -29.408  0.00  0.00    +0.000 A 
ENDBRANCH   6  13
BRANCH   4  20
ATOM     20  O   UNL     1     -47.383  -3.150 -27.748  0.00  0.00    +0.000 OA
ATOM     21  H   UNL     1     -46.780  -2.469 -27.523  0.00  0.00    +0.000 HD
ENDBRANCH   4  20
BRANCH   5  22
ATOM     22  C   UNL     1     -46.842  -4.891 -30.119  0.00  0.00    +0.000 C 
ATOM     23  O   UNL     1     -47.756  -5.377 -30.839  0.00  0.00    +0.000 OA
BRANCH  22  24
ATOM     24  C   UNL     1     -45.898  -3.934 -30.721  0.00  0.00    +0.000 A 
ATOM     25  C   UNL     1     -44.674  -4.285 -31.298  0.00  0.00    +0.000 A 
ATOM     26  C   UNL     1     -44.170  -3.070 -31.707  0.00  0.00    +0.000 A 
ATOM     27  C   UNL     1     -42.975  -2.768 -32.357  0.00  0.00    +0.000 A 
ATOM     28  C   UNL     1     -42.720  -1.418 -32.657  0.00  0.00    +0.000 A 
ATOM     29  C   UNL     1     -43.651  -0.417 -32.305  0.00  0.00    +0.000 A 
ATOM     30  C   UNL     1     -44.849  -0.752 -31.649  0.00  0.00    +0.000 A 
ATOM     31  C   UNL     1     -45.070  -2.098 -31.366  0.00  0.00    +0.000 A 
ATOM     32  O   UNL     1     -46.103  -2.630 -30.772  0.00  0.00    +0.000 OA
ENDBRANCH  22  24
ENDBRANCH   5  22
TORSDOF 4
ENDMDL
