MODEL 1
REMARK VINA RESULT:      -7.0      0.000      0.000
REMARK  Name = ZINC000409246055 PubChem-126252235
REMARK  6 active torsions:
REMARK  status: ('A' for Active; 'I' for Inactive)
REMARK    1  A    between atoms: N_1  and  C_32
REMARK    2  A    between atoms: C_8  and  C_12
REMARK    3  A    between atoms: N_19  and  C_21
REMARK    4  A    between atoms: C_21  and  C_22
REMARK    5  A    between atoms: C_29  and  O_36
REMARK    6  A    between atoms: C_33  and  O_37
REMARK                            x       y       z     vdW  Elec       q    Type
REMARK                         _______ _______ _______ _____ _____    ______ ____
ROOT
ATOM      1  N   UNL     1     -44.067  -6.717 -30.911  0.00  0.00    +0.000 N 
ATOM      2  C   UNL     1     -43.862  -7.702 -31.944  0.00  0.00    +0.000 C 
ATOM      3  O   UNL     1     -43.880  -7.372 -33.159  0.00  0.00    +0.000 OA
ATOM      4  N   UNL     1     -43.644  -9.072 -31.599  0.00  0.00    +0.000 N 
ATOM      5  C   UNL     1     -43.723  -9.520 -30.247  0.00  0.00    +0.000 C 
ATOM      6  O   UNL     1     -43.545 -10.741 -29.990  0.00  0.00    +0.000 OA
ATOM      7  C   UNL     1     -44.038  -8.560 -29.173  0.00  0.00    +0.000 C 
ATOM      8  C   UNL     1     -44.307  -9.033 -27.943  0.00  0.00    +0.000 C 
ATOM      9  C   UNL     1     -44.007  -7.119 -29.527  0.00  0.00    +0.000 C 
ATOM     10  O   UNL     1     -43.837  -6.247 -28.632  0.00  0.00    +0.000 OA
ATOM     11  H   UNL     1     -43.435  -9.720 -32.311  0.00  0.00    +0.000 HD
ENDROOT
BRANCH   8  12
ATOM     12  C   UNL     1     -44.812  -8.282 -26.781  0.00  0.00    +0.000 A 
ATOM     13  C   UNL     1     -46.166  -7.876 -26.698  0.00  0.00    +0.000 A 
ATOM     14  C   UNL     1     -46.656  -7.225 -25.554  0.00  0.00    +0.000 A 
ATOM     15  C   UNL     1     -45.762  -7.014 -24.505  0.00  0.00    +0.000 A 
ATOM     16  C   UNL     1     -44.461  -7.426 -24.567  0.00  0.00    +0.000 A 
ATOM     17  C   UNL     1     -43.838  -7.082 -23.382  0.00  0.00    +0.000 A 
ATOM     18  C   UNL     1     -44.836  -6.451 -22.631  0.00  0.00    +0.000 A 
ATOM     19  N   UNL     1     -45.998  -6.423 -23.325  0.00  0.00    +0.000 N 
ATOM     20  C   UNL     1     -43.951  -8.076 -25.687  0.00  0.00    +0.000 A 
BRANCH  19  21
ATOM     21  C   UNL     1     -47.243  -5.814 -22.879  0.00  0.00    +0.000 C 
BRANCH  21  22
ATOM     22  C   UNL     1     -47.196  -4.337 -23.082  0.00  0.00    +0.000 A 
ATOM     23  C   UNL     1     -47.186  -3.478 -21.978  0.00  0.00    +0.000 A 
ATOM     24  C   UNL     1     -47.173  -2.092 -22.169  0.00  0.00    +0.000 A 
ATOM     25  C   UNL     1     -47.176  -1.566 -23.464  0.00  0.00    +0.000 A 
ATOM     26  C   UNL     1     -47.191  -2.423 -24.568  0.00  0.00    +0.000 A 
ATOM     27  F   UNL     1     -47.198  -1.912 -25.823  0.00  0.00    +0.000 F 
ATOM     28  C   UNL     1     -47.204  -3.808 -24.378  0.00  0.00    +0.000 A 
ENDBRANCH  21  22
ENDBRANCH  19  21
ENDBRANCH   8  12
BRANCH   1  32
ATOM     29  C   UNL     1     -44.609  -2.610 -31.888  0.00  0.00    +0.000 A 
ATOM     30  C   UNL     1     -43.327  -3.179 -31.883  0.00  0.00    +0.000 A 
ATOM     31  C   UNL     1     -43.159  -4.528 -31.566  0.00  0.00    +0.000 A 
ATOM     32  C   UNL     1     -44.265  -5.331 -31.251  0.00  0.00    +0.000 A 
ATOM     33  C   UNL     1     -45.556  -4.766 -31.262  0.00  0.00    +0.000 A 
ATOM     34  C   UNL     1     -45.714  -3.407 -31.578  0.00  0.00    +0.000 A 
BRANCH  29  36
ATOM     35  C   UNL     1     -43.766  -0.414 -32.654  0.00  0.00    +0.000 C 
ATOM     36  O   UNL     1     -44.811  -1.263 -32.198  0.00  0.00    +0.000 OA
ENDBRANCH  29  36
BRANCH  33  37
ATOM     37  O   UNL     1     -46.665  -5.570 -30.968  0.00  0.00    +0.000 OA
ATOM     38  C   UNL     1     -47.378  -5.482 -29.743  0.00  0.00    +0.000 C 
ENDBRANCH  33  37
ENDBRANCH   1  32
TORSDOF 6
ENDMDL
MODEL 2
REMARK VINA RESULT:      -6.9      5.797      8.604
REMARK  Name = ZINC000409246055 PubChem-126252235
REMARK  6 active torsions:
REMARK  status: ('A' for Active; 'I' for Inactive)
REMARK    1  A    between atoms: N_1  and  C_32
REMARK    2  A    between atoms: C_8  and  C_12
REMARK    3  A    between atoms: N_19  and  C_21
REMARK    4  A    between atoms: C_21  and  C_22
REMARK    5  A    between atoms: C_29  and  O_36
REMARK    6  A    between atoms: C_33  and  O_37
REMARK                            x       y       z     vdW  Elec       q    Type
REMARK                         _______ _______ _______ _____ _____    ______ ____
ROOT
ATOM      1  N   UNL     1     -46.543  -9.307 -37.715  0.00  0.00    +0.000 N 
ATOM      2  C   UNL     1     -47.074 -10.566 -38.176  0.00  0.00    +0.000 C 
ATOM      3  O   UNL     1     -47.571 -10.671 -39.329  0.00  0.00    +0.000 OA
ATOM      4  N   UNL     1     -47.052 -11.713 -37.323  0.00  0.00    +0.000 N 
ATOM      5  C   UNL     1     -46.603 -11.626 -35.972  0.00  0.00    +0.000 C 
ATOM      6  O   UNL     1     -46.620 -12.658 -35.248  0.00  0.00    +0.000 OA
ATOM      7  C   UNL     1     -46.154 -10.330 -35.430  0.00  0.00    +0.000 C 
ATOM      8  C   UNL     1     -45.930 -10.226 -34.108  0.00  0.00    +0.000 C 
ATOM      9  C   UNL     1     -45.950  -9.228 -36.403  0.00  0.00    +0.000 C 
ATOM     10  O   UNL     1     -45.188  -8.262 -36.121  0.00  0.00    +0.000 OA
ATOM     11  H   UNL     1     -47.352 -12.581 -37.676  0.00  0.00    +0.000 HD
ENDROOT
BRANCH   8  12
ATOM     12  C   UNL     1     -45.651  -9.003 -33.336  0.00  0.00    +0.000 A 
ATOM     13  C   UNL     1     -44.335  -8.491 -33.218  0.00  0.00    +0.000 A 
ATOM     14  C   UNL     1     -44.088  -7.285 -32.542  0.00  0.00    +0.000 A 
ATOM     15  C   UNL     1     -45.187  -6.609 -32.013  0.00  0.00    +0.000 A 
ATOM     16  C   UNL     1     -46.461  -7.083 -32.146  0.00  0.00    +0.000 A 
ATOM     17  C   UNL     1     -47.323  -6.197 -31.528  0.00  0.00    +0.000 A 
ATOM     18  C   UNL     1     -46.490  -5.189 -31.029  0.00  0.00    +0.000 A 
ATOM     19  N   UNL     1     -45.199  -5.452 -31.338  0.00  0.00    +0.000 N 
ATOM     20  C   UNL     1     -46.735  -8.274 -32.813  0.00  0.00    +0.000 A 
BRANCH  19  21
ATOM     21  C   UNL     1     -44.049  -4.646 -30.952  0.00  0.00    +0.000 C 
BRANCH  21  22
ATOM     22  C   UNL     1     -43.948  -3.440 -31.823  0.00  0.00    +0.000 A 
ATOM     23  C   UNL     1     -43.314  -3.525 -33.068  0.00  0.00    +0.000 A 
ATOM     24  C   UNL     1     -43.193  -2.387 -33.871  0.00  0.00    +0.000 A 
ATOM     25  C   UNL     1     -43.700  -1.162 -33.428  0.00  0.00    +0.000 A 
ATOM     26  C   UNL     1     -44.329  -1.074 -32.182  0.00  0.00    +0.000 A 
ATOM     27  F   UNL     1     -44.816   0.115 -31.752  0.00  0.00    +0.000 F 
ATOM     28  C   UNL     1     -44.450  -2.211 -31.379  0.00  0.00    +0.000 A 
ENDBRANCH  21  22
ENDBRANCH  19  21
ENDBRANCH   8  12
BRANCH   1  32
ATOM     29  C   UNL     1     -46.597  -5.906 -40.273  0.00  0.00    +0.000 A 
ATOM     30  C   UNL     1     -47.621  -6.111 -39.337  0.00  0.00    +0.000 A 
ATOM     31  C   UNL     1     -47.594  -7.227 -38.499  0.00  0.00    +0.000 A 
ATOM     32  C   UNL     1     -46.544  -8.154 -38.578  0.00  0.00    +0.000 A 
ATOM     33  C   UNL     1     -45.507  -7.949 -39.511  0.00  0.00    +0.000 A 
ATOM     34  C   UNL     1     -45.547  -6.825 -40.352  0.00  0.00    +0.000 A 
BRANCH  29  36
ATOM     35  C   UNL     1     -46.570  -4.926 -42.543  0.00  0.00    +0.000 C 
ATOM     36  O   UNL     1     -46.596  -4.801 -41.128  0.00  0.00    +0.000 OA
ENDBRANCH  29  36
BRANCH  33  37
ATOM     37  O   UNL     1     -44.447  -8.861 -39.579  0.00  0.00    +0.000 OA
ATOM     38  C   UNL     1     -44.313  -9.812 -40.626  0.00  0.00    +0.000 C 
ENDBRANCH  33  37
ENDBRANCH   1  32
TORSDOF 6
ENDMDL
MODEL 3
REMARK VINA RESULT:      -6.9      5.279      8.850
REMARK  Name = ZINC000409246055 PubChem-126252235
REMARK  6 active torsions:
REMARK  status: ('A' for Active; 'I' for Inactive)
REMARK    1  A    between atoms: N_1  and  C_32
REMARK    2  A    between atoms: C_8  and  C_12
REMARK    3  A    between atoms: N_19  and  C_21
REMARK    4  A    between atoms: C_21  and  C_22
REMARK    5  A    between atoms: C_29  and  O_36
REMARK    6  A    between atoms: C_33  and  O_37
REMARK                            x       y       z     vdW  Elec       q    Type
REMARK                         _______ _______ _______ _____ _____    ______ ____
ROOT
ATOM      1  N   UNL     1     -45.065 -14.468 -25.665  0.00  0.00    +0.000 N 
ATOM      2  C   UNL     1     -44.652 -15.411 -26.675  0.00  0.00    +0.000 C 
ATOM      3  O   UNL     1     -44.124 -16.508 -26.351  0.00  0.00    +0.000 OA
ATOM      4  N   UNL     1     -44.829 -15.108 -28.060  0.00  0.00    +0.000 N 
ATOM      5  C   UNL     1     -45.320 -13.838 -28.486  0.00  0.00    +0.000 C 
ATOM      6  O   UNL     1     -45.440 -13.605 -29.719  0.00  0.00    +0.000 OA
ATOM      7  C   UNL     1     -45.651 -12.806 -27.486  0.00  0.00    +0.000 C 
ATOM      8  C   UNL     1     -45.915 -11.558 -27.909  0.00  0.00    +0.000 C 
ATOM      9  C   UNL     1     -45.699 -13.236 -26.066  0.00  0.00    +0.000 C 
ATOM     10  O   UNL     1     -46.365 -12.575 -25.223  0.00  0.00    +0.000 OA
ATOM     11  H   UNL     1     -44.607 -15.790 -28.734  0.00  0.00    +0.000 HD
ENDROOT
BRANCH   8  12
ATOM     12  C   UNL     1     -46.095 -10.348 -27.089  0.00  0.00    +0.000 A 
ATOM     13  C   UNL     1     -47.384  -9.906 -26.702  0.00  0.00    +0.000 A 
ATOM     14  C   UNL     1     -47.542  -8.793 -25.858  0.00  0.00    +0.000 A 
ATOM     15  C   UNL     1     -46.384  -8.160 -25.408  0.00  0.00    +0.000 A 
ATOM     16  C   UNL     1     -45.137  -8.598 -25.756  0.00  0.00    +0.000 A 
ATOM     17  C   UNL     1     -44.204  -7.777 -25.151  0.00  0.00    +0.000 A 
ATOM     18  C   UNL     1     -44.966  -6.843 -24.440  0.00  0.00    +0.000 A 
ATOM     19  N   UNL     1     -46.286  -7.095 -24.601  0.00  0.00    +0.000 N 
ATOM     20  C   UNL     1     -44.952  -9.698 -26.587  0.00  0.00    +0.000 A 
BRANCH  19  21
ATOM     21  C   UNL     1     -47.378  -6.310 -24.042  0.00  0.00    +0.000 C 
BRANCH  21  22
ATOM     22  C   UNL     1     -47.366  -4.931 -24.609  0.00  0.00    +0.000 A 
ATOM     23  C   UNL     1     -47.412  -4.742 -25.995  0.00  0.00    +0.000 A 
ATOM     24  C   UNL     1     -47.370  -3.449 -26.526  0.00  0.00    +0.000 A 
ATOM     25  C   UNL     1     -47.277  -2.345 -25.674  0.00  0.00    +0.000 A 
ATOM     26  C   UNL     1     -47.225  -2.533 -24.289  0.00  0.00    +0.000 A 
ATOM     27  F   UNL     1     -47.129  -1.462 -23.464  0.00  0.00    +0.000 F 
ATOM     28  C   UNL     1     -47.267  -3.825 -23.757  0.00  0.00    +0.000 A 
ENDBRANCH  21  22
ENDBRANCH  19  21
ENDBRANCH   8  12
BRANCH   1  32
ATOM     29  C   UNL     1     -44.656 -15.371 -21.526  0.00  0.00    +0.000 A 
ATOM     30  C   UNL     1     -45.797 -15.774 -22.235  0.00  0.00    +0.000 A 
ATOM     31  C   UNL     1     -45.922 -15.478 -23.594  0.00  0.00    +0.000 A 
ATOM     32  C   UNL     1     -44.910 -14.778 -24.268  0.00  0.00    +0.000 A 
ATOM     33  C   UNL     1     -43.757 -14.377 -23.562  0.00  0.00    +0.000 A 
ATOM     34  C   UNL     1     -43.644 -14.677 -22.195  0.00  0.00    +0.000 A 
BRANCH  29  36
ATOM     35  C   UNL     1     -45.580 -16.075 -19.343  0.00  0.00    +0.000 C 
ATOM     36  O   UNL     1     -44.502 -15.650 -20.166  0.00  0.00    +0.000 OA
ENDBRANCH  29  36
BRANCH  33  37
ATOM     37  O   UNL     1     -42.735 -13.696 -24.235  0.00  0.00    +0.000 OA
ATOM     38  C   UNL     1     -41.584 -14.349 -24.752  0.00  0.00    +0.000 C 
ENDBRANCH  33  37
ENDBRANCH   1  32
TORSDOF 6
ENDMDL
