MODEL 1
REMARK VINA RESULT:      -7.3      0.000      0.000
REMARK  Name = ZINC000015841380 ZINC15841380 ChemDiv-D468-2065 MCULE-3603103277 MolPort-004-901-220 PubChem-20897503
REMARK  2 active torsions:
REMARK  status: ('A' for Active; 'I' for Inactive)
REMARK    1  A    between atoms: C_10  and  C_14
REMARK    2  A    between atoms: N_16  and  C_18
REMARK                            x       y       z     vdW  Elec       q    Type
REMARK                         _______ _______ _______ _____ _____    ______ ____
ROOT
ATOM      1  C   UNL     1     -45.503 -12.392 -23.837  0.00  0.00    +0.000 C 
ATOM      2  C   UNL     1     -45.530 -13.870 -24.033  0.00  0.00    +0.000 A 
ATOM      3  C   UNL     1     -45.878 -14.441 -25.272  0.00  0.00    +0.000 A 
ATOM      4  C   UNL     1     -46.234 -13.595 -26.447  0.00  0.00    +0.000 C 
ATOM      5  C   UNL     1     -45.892 -15.832 -25.418  0.00  0.00    +0.000 A 
ATOM      6  C   UNL     1     -45.562 -16.660 -24.337  0.00  0.00    +0.000 A 
ATOM      7  C   UNL     1     -45.566 -18.056 -24.446  0.00  0.00    +0.000 A 
ATOM      8  O   UNL     1     -45.872 -18.624 -25.528  0.00  0.00    +0.000 OA
ATOM      9  C   UNL     1     -45.222 -18.827 -23.337  0.00  0.00    +0.000 A 
ATOM     10  C   UNL     1     -44.880 -18.188 -22.137  0.00  0.00    +0.000 A 
ATOM     11  O   UNL     1     -44.899 -16.859 -22.063  0.00  0.00    +0.000 OA
ATOM     12  C   UNL     1     -45.215 -16.085 -23.096  0.00  0.00    +0.000 A 
ATOM     13  C   UNL     1     -45.202 -14.696 -22.952  0.00  0.00    +0.000 A 
ENDROOT
BRANCH  10  14
ATOM     14  C   UNL     1     -44.515 -18.988 -20.950  0.00  0.00    +0.000 C 
ATOM     15  O   UNL     1     -43.662 -19.907 -21.061  0.00  0.00    +0.000 OA
ATOM     16  N   UNL     1     -45.154 -18.791 -19.681  0.00  0.00    +0.000 N 
ATOM     17  H   UNL     1     -45.287 -19.589 -19.120  0.00  0.00    +0.000 HD
BRANCH  16  18
ATOM     18  C   UNL     1     -45.616 -17.542 -19.154  0.00  0.00    +0.000 A 
ATOM     19  C   UNL     1     -44.714 -16.568 -18.685  0.00  0.00    +0.000 A 
ATOM     20  C   UNL     1     -45.205 -15.375 -18.158  0.00  0.00    +0.000 A 
ATOM     21  N   UNL     1     -44.396 -14.387 -17.704  0.00  0.00    +0.000 NA
ATOM     22  S   UNL     1     -45.536 -13.284 -17.228  0.00  0.00    +0.000 S 
ATOM     23  N   UNL     1     -47.008 -13.965 -17.555  0.00  0.00    +0.000 NA
ATOM     24  C   UNL     1     -46.606 -15.150 -18.079  0.00  0.00    +0.000 A 
ATOM     25  C   UNL     1     -47.501 -16.121 -18.523  0.00  0.00    +0.000 A 
ATOM     26  C   UNL     1     -47.000 -17.318 -19.055  0.00  0.00    +0.000 A 
ENDBRANCH  16  18
ENDBRANCH  10  14
TORSDOF 2
ENDMDL
MODEL 2
REMARK VINA RESULT:      -6.9      3.350      4.864
REMARK  Name = ZINC000015841380 ZINC15841380 ChemDiv-D468-2065 MCULE-3603103277 MolPort-004-901-220 PubChem-20897503
REMARK  2 active torsions:
REMARK  status: ('A' for Active; 'I' for Inactive)
REMARK    1  A    between atoms: C_10  and  C_14
REMARK    2  A    between atoms: N_16  and  C_18
REMARK                            x       y       z     vdW  Elec       q    Type
REMARK                         _______ _______ _______ _____ _____    ______ ____
ROOT
ATOM      1  C   UNL     1     -40.788 -17.474 -28.336  0.00  0.00    +0.000 C 
ATOM      2  C   UNL     1     -41.974 -17.917 -27.548  0.00  0.00    +0.000 A 
ATOM      3  C   UNL     1     -42.546 -19.192 -27.733  0.00  0.00    +0.000 A 
ATOM      4  C   UNL     1     -41.992 -20.157 -28.725  0.00  0.00    +0.000 C 
ATOM      5  C   UNL     1     -43.658 -19.572 -26.975  0.00  0.00    +0.000 A 
ATOM      6  C   UNL     1     -44.206 -18.692 -26.033  0.00  0.00    +0.000 A 
ATOM      7  C   UNL     1     -45.319 -19.039 -25.257  0.00  0.00    +0.000 A 
ATOM      8  O   UNL     1     -45.875 -20.163 -25.381  0.00  0.00    +0.000 OA
ATOM      9  C   UNL     1     -45.816 -18.124 -24.330  0.00  0.00    +0.000 A 
ATOM     10  C   UNL     1     -45.190 -16.877 -24.196  0.00  0.00    +0.000 A 
ATOM     11  O   UNL     1     -44.141 -16.573 -24.958  0.00  0.00    +0.000 OA
ATOM     12  C   UNL     1     -43.632 -17.417 -25.850  0.00  0.00    +0.000 A 
ATOM     13  C   UNL     1     -42.522 -17.038 -26.608  0.00  0.00    +0.000 A 
ENDROOT
BRANCH  10  14
ATOM     14  C   UNL     1     -45.702 -15.892 -23.221  0.00  0.00    +0.000 C 
ATOM     15  O   UNL     1     -46.510 -15.004 -23.604  0.00  0.00    +0.000 OA
ATOM     16  N   UNL     1     -45.256 -15.875 -21.858  0.00  0.00    +0.000 N 
ATOM     17  H   UNL     1     -45.187 -14.995 -21.422  0.00  0.00    +0.000 HD
BRANCH  16  18
ATOM     18  C   UNL     1     -44.903 -17.019 -21.072  0.00  0.00    +0.000 A 
ATOM     19  C   UNL     1     -43.562 -17.427 -20.937  0.00  0.00    +0.000 A 
ATOM     20  C   UNL     1     -43.263 -18.559 -20.182  0.00  0.00    +0.000 A 
ATOM     21  N   UNL     1     -41.996 -19.001 -19.995  0.00  0.00    +0.000 NA
ATOM     22  S   UNL     1     -42.294 -20.327 -19.049  0.00  0.00    +0.000 S 
ATOM     23  N   UNL     1     -43.935 -20.395 -18.847  0.00  0.00    +0.000 NA
ATOM     24  C   UNL     1     -44.304 -19.306 -19.566  0.00  0.00    +0.000 A 
ATOM     25  C   UNL     1     -45.633 -18.916 -19.716  0.00  0.00    +0.000 A 
ATOM     26  C   UNL     1     -45.926 -17.773 -20.475  0.00  0.00    +0.000 A 
ENDBRANCH  16  18
ENDBRANCH  10  14
TORSDOF 2
ENDMDL
MODEL 3
REMARK VINA RESULT:      -6.8     13.400     16.564
REMARK  Name = ZINC000015841380 ZINC15841380 ChemDiv-D468-2065 MCULE-3603103277 MolPort-004-901-220 PubChem-20897503
REMARK  2 active torsions:
REMARK  status: ('A' for Active; 'I' for Inactive)
REMARK    1  A    between atoms: C_10  and  C_14
REMARK    2  A    between atoms: N_16  and  C_18
REMARK                            x       y       z     vdW  Elec       q    Type
REMARK                         _______ _______ _______ _____ _____    ______ ____
ROOT
ATOM      1  C   UNL     1     -39.585  -3.734 -33.602  0.00  0.00    +0.000 C 
ATOM      2  C   UNL     1     -40.848  -3.031 -33.234  0.00  0.00    +0.000 A 
ATOM      3  C   UNL     1     -40.840  -1.707 -32.754  0.00  0.00    +0.000 A 
ATOM      4  C   UNL     1     -39.568  -0.945 -32.591  0.00  0.00    +0.000 C 
ATOM      5  C   UNL     1     -42.045  -1.080 -32.421  0.00  0.00    +0.000 A 
ATOM      6  C   UNL     1     -43.260  -1.763 -32.562  0.00  0.00    +0.000 A 
ATOM      7  C   UNL     1     -44.485  -1.168 -32.237  0.00  0.00    +0.000 A 
ATOM      8  O   UNL     1     -44.540   0.013 -31.799  0.00  0.00    +0.000 OA
ATOM      9  C   UNL     1     -45.662  -1.896 -32.405  0.00  0.00    +0.000 A 
ATOM     10  C   UNL     1     -45.593  -3.207 -32.895  0.00  0.00    +0.000 A 
ATOM     11  O   UNL     1     -44.411  -3.749 -33.182  0.00  0.00    +0.000 OA
ATOM     12  C   UNL     1     -43.265  -3.089 -33.042  0.00  0.00    +0.000 A 
ATOM     13  C   UNL     1     -42.060  -3.714 -33.374  0.00  0.00    +0.000 A 
ENDROOT
BRANCH  10  14
ATOM     14  C   UNL     1     -46.828  -3.996 -33.078  0.00  0.00    +0.000 C 
ATOM     15  O   UNL     1     -47.238  -4.244 -34.243  0.00  0.00    +0.000 OA
ATOM     16  N   UNL     1     -47.616  -4.435 -31.963  0.00  0.00    +0.000 N 
ATOM     17  H   UNL     1     -48.592  -4.470 -32.092  0.00  0.00    +0.000 HD
BRANCH  16  18
ATOM     18  C   UNL     1     -47.116  -4.830 -30.680  0.00  0.00    +0.000 A 
ATOM     19  C   UNL     1     -46.081  -5.775 -30.558  0.00  0.00    +0.000 A 
ATOM     20  C   UNL     1     -45.639  -6.149 -29.291  0.00  0.00    +0.000 A 
ATOM     21  N   UNL     1     -44.636  -7.041 -29.098  0.00  0.00    +0.000 NA
ATOM     22  S   UNL     1     -44.586  -7.057 -27.443  0.00  0.00    +0.000 S 
ATOM     23  N   UNL     1     -45.756  -6.005 -26.931  0.00  0.00    +0.000 NA
ATOM     24  C   UNL     1     -46.240  -5.593 -28.129  0.00  0.00    +0.000 A 
ATOM     25  C   UNL     1     -47.280  -4.673 -28.247  0.00  0.00    +0.000 A 
ATOM     26  C   UNL     1     -47.717  -4.299 -29.526  0.00  0.00    +0.000 A 
ENDBRANCH  16  18
ENDBRANCH  10  14
TORSDOF 2
ENDMDL
