MODEL 1
REMARK VINA RESULT:      -6.1      0.000      0.000
REMARK  Name = ZINC000003420494 ZINC03420494 PubChem-2539725
REMARK  7 active torsions:
REMARK  status: ('A' for Active; 'I' for Inactive)
REMARK    1  A    between atoms: C_2  and  C_3
REMARK    2  A    between atoms: C_2  and  O_23
REMARK    3  A    between atoms: C_4  and  N_25
REMARK    4  A    between atoms: C_6  and  N_26
REMARK    5  A    between atoms: C_9  and  O_20
REMARK    6  A    between atoms: C_11  and  C_12
REMARK    7  A    between atoms: C_11  and  O_23
REMARK                            x       y       z     vdW  Elec       q    Type
REMARK                         _______ _______ _______ _____ _____    ______ ____
ROOT
ATOM      1  C   UNL     1     -44.536  -6.749 -29.211  0.00  0.00    +0.000 C 
ATOM      2  O   UNL     1     -43.639  -5.868 -29.302  0.00  0.00    +0.000 OA
ATOM      3  N   UNL     1     -44.147  -8.131 -29.209  0.00  0.00    +0.000 NA
ENDROOT
BRANCH   3   4
ATOM      4  C   UNL     1     -44.996  -9.277 -29.373  0.00  0.00    +0.000 A 
ATOM      5  C   UNL     1     -45.593  -9.910 -28.273  0.00  0.00    +0.000 A 
ATOM      6  C   UNL     1     -46.443 -11.008 -28.443  0.00  0.00    +0.000 A 
ATOM      7  C   UNL     1     -46.704 -11.475 -29.737  0.00  0.00    +0.000 A 
ATOM      8  C   UNL     1     -46.125 -10.848 -30.842  0.00  0.00    +0.000 A 
ATOM      9  C   UNL     1     -45.272  -9.744 -30.669  0.00  0.00    +0.000 A 
BRANCH   6  12
ATOM     10  O   UNL     1     -47.382 -12.841 -27.351  0.00  0.00    +0.000 OA
ATOM     11  O   UNL     1     -47.245 -10.930 -26.143  0.00  0.00    +0.000 OA
ATOM     12  N   UNL     1     -47.039 -11.642 -27.304  0.00  0.00    +0.000 N 
ENDBRANCH   6  12
BRANCH   9  14
ATOM     13  C   UNL     1     -45.405  -8.196 -32.599  0.00  0.00    +0.000 C 
ATOM     14  O   UNL     1     -44.690  -9.102 -31.768  0.00  0.00    +0.000 OA
ENDBRANCH   9  14
ENDBRANCH   3   4
BRANCH   1  16
ATOM     15  C   UNL     1     -46.224  -5.462 -27.857  0.00  0.00    +0.000 C 
ATOM     16  C   UNL     1     -45.972  -6.334 -29.078  0.00  0.00    +0.000 C 
BRANCH  16  17
ATOM     17  O   UNL     1     -46.481  -5.751 -30.280  0.00  0.00    +0.000 OA
BRANCH  17  18
ATOM     18  C   UNL     1     -46.717  -4.383 -30.467  0.00  0.00    +0.000 C 
ATOM     19  O   UNL     1     -47.755  -3.836 -30.005  0.00  0.00    +0.000 OA
BRANCH  18  20
ATOM     20  C   UNL     1     -45.743  -3.584 -31.216  0.00  0.00    +0.000 A 
ATOM     21  C   UNL     1     -45.590  -2.196 -31.104  0.00  0.00    +0.000 A 
ATOM     22  C   UNL     1     -44.575  -1.760 -31.955  0.00  0.00    +0.000 A 
ATOM     23  C   UNL     1     -43.977  -2.720 -32.677  0.00  0.00    +0.000 A 
ATOM     24  C   UNL     1     -42.911  -2.234 -33.565  0.00  0.00    +0.000 C 
ATOM     25  C   UNL     1     -42.922  -0.717 -33.279  0.00  0.00    +0.000 C 
ATOM     26  C   UNL     1     -44.016  -0.424 -32.225  0.00  0.00    +0.000 C 
ATOM     27  S   UNL     1     -44.639  -4.221 -32.344  0.00  0.00    +0.000 S 
ENDBRANCH  18  20
ENDBRANCH  17  18
ENDBRANCH  16  17
ENDBRANCH   1  16
TORSDOF 7
ENDMDL
MODEL 2
REMARK VINA RESULT:      -5.9      3.729      7.243
REMARK  Name = ZINC000003420494 ZINC03420494 PubChem-2539725
REMARK  7 active torsions:
REMARK  status: ('A' for Active; 'I' for Inactive)
REMARK    1  A    between atoms: C_2  and  C_3
REMARK    2  A    between atoms: C_2  and  O_23
REMARK    3  A    between atoms: C_4  and  N_25
REMARK    4  A    between atoms: C_6  and  N_26
REMARK    5  A    between atoms: C_9  and  O_20
REMARK    6  A    between atoms: C_11  and  C_12
REMARK    7  A    between atoms: C_11  and  O_23
REMARK                            x       y       z     vdW  Elec       q    Type
REMARK                         _______ _______ _______ _____ _____    ______ ____
ROOT
ATOM      1  C   UNL     1     -46.401  -3.902 -30.140  0.00  0.00    +0.000 C 
ATOM      2  O   UNL     1     -47.402  -4.013 -29.383  0.00  0.00    +0.000 OA
ATOM      3  N   UNL     1     -46.142  -2.633 -30.758  0.00  0.00    +0.000 NA
ENDROOT
BRANCH   3   4
ATOM      4  C   UNL     1     -45.233  -2.354 -31.834  0.00  0.00    +0.000 A 
ATOM      5  C   UNL     1     -43.937  -1.876 -31.593  0.00  0.00    +0.000 A 
ATOM      6  C   UNL     1     -43.047  -1.635 -32.645  0.00  0.00    +0.000 A 
ATOM      7  C   UNL     1     -43.460  -1.885 -33.959  0.00  0.00    +0.000 A 
ATOM      8  C   UNL     1     -44.744  -2.372 -34.213  0.00  0.00    +0.000 A 
ATOM      9  C   UNL     1     -45.636  -2.614 -33.155  0.00  0.00    +0.000 A 
BRANCH   6  12
ATOM     10  O   UNL     1     -41.565  -0.058 -31.780  0.00  0.00    +0.000 OA
ATOM     11  O   UNL     1     -40.624  -1.861 -32.775  0.00  0.00    +0.000 OA
ATOM     12  N   UNL     1     -41.728  -1.142 -32.375  0.00  0.00    +0.000 N 
ENDBRANCH   6  12
BRANCH   9  14
ATOM     13  C   UNL     1     -47.166  -4.314 -34.106  0.00  0.00    +0.000 C 
ATOM     14  O   UNL     1     -46.924  -3.107 -33.394  0.00  0.00    +0.000 OA
ENDBRANCH   9  14
ENDBRANCH   3   4
BRANCH   1  16
ATOM     15  C   UNL     1     -45.186  -5.826 -29.063  0.00  0.00    +0.000 C 
ATOM     16  C   UNL     1     -45.496  -5.081 -30.352  0.00  0.00    +0.000 C 
BRANCH  16  17
ATOM     17  O   UNL     1     -45.971  -5.949 -31.383  0.00  0.00    +0.000 OA
BRANCH  17  18
ATOM     18  C   UNL     1     -45.199  -6.928 -32.023  0.00  0.00    +0.000 C 
ATOM     19  O   UNL     1     -45.251  -8.134 -31.658  0.00  0.00    +0.000 OA
BRANCH  18  20
ATOM     20  C   UNL     1     -44.316  -6.537 -33.126  0.00  0.00    +0.000 A 
ATOM     21  C   UNL     1     -43.237  -5.650 -33.014  0.00  0.00    +0.000 A 
ATOM     22  C   UNL     1     -42.612  -5.504 -34.251  0.00  0.00    +0.000 A 
ATOM     23  C   UNL     1     -43.151  -6.213 -35.256  0.00  0.00    +0.000 A 
ATOM     24  C   UNL     1     -42.474  -6.040 -36.548  0.00  0.00    +0.000 C 
ATOM     25  C   UNL     1     -41.346  -5.048 -36.191  0.00  0.00    +0.000 C 
ATOM     26  C   UNL     1     -41.452  -4.707 -34.686  0.00  0.00    +0.000 C 
ATOM     27  S   UNL     1     -44.465  -7.103 -34.724  0.00  0.00    +0.000 S 
ENDBRANCH  18  20
ENDBRANCH  17  18
ENDBRANCH  16  17
ENDBRANCH   1  16
TORSDOF 7
ENDMDL
MODEL 3
REMARK VINA RESULT:      -5.9      9.631     13.973
REMARK  Name = ZINC000003420494 ZINC03420494 PubChem-2539725
REMARK  7 active torsions:
REMARK  status: ('A' for Active; 'I' for Inactive)
REMARK    1  A    between atoms: C_2  and  C_3
REMARK    2  A    between atoms: C_2  and  O_23
REMARK    3  A    between atoms: C_4  and  N_25
REMARK    4  A    between atoms: C_6  and  N_26
REMARK    5  A    between atoms: C_9  and  O_20
REMARK    6  A    between atoms: C_11  and  C_12
REMARK    7  A    between atoms: C_11  and  O_23
REMARK                            x       y       z     vdW  Elec       q    Type
REMARK                         _______ _______ _______ _____ _____    ______ ____
ROOT
ATOM      1  C   UNL     1     -42.068 -17.661 -25.919  0.00  0.00    +0.000 C 
ATOM      2  O   UNL     1     -40.957 -18.149 -25.578  0.00  0.00    +0.000 OA
ATOM      3  N   UNL     1     -42.309 -16.266 -25.682  0.00  0.00    +0.000 NA
ENDROOT
BRANCH   3   4
ATOM      4  C   UNL     1     -43.566 -15.574 -25.749  0.00  0.00    +0.000 A 
ATOM      5  C   UNL     1     -44.064 -15.079 -26.962  0.00  0.00    +0.000 A 
ATOM      6  C   UNL     1     -45.303 -14.431 -27.025  0.00  0.00    +0.000 A 
ATOM      7  C   UNL     1     -46.056 -14.285 -25.854  0.00  0.00    +0.000 A 
ATOM      8  C   UNL     1     -45.577 -14.783 -24.641  0.00  0.00    +0.000 A 
ATOM      9  C   UNL     1     -44.332 -15.434 -24.580  0.00  0.00    +0.000 A 
BRANCH   6  12
ATOM     10  O   UNL     1     -45.161 -14.136 -29.333  0.00  0.00    +0.000 OA
ATOM     11  O   UNL     1     -46.965 -13.210 -28.324  0.00  0.00    +0.000 OA
ATOM     12  N   UNL     1     -45.793 -13.930 -28.276  0.00  0.00    +0.000 N 
ENDBRANCH   6  12
BRANCH   9  14
ATOM     13  C   UNL     1     -43.884 -15.210 -22.155  0.00  0.00    +0.000 C 
ATOM     14  O   UNL     1     -43.841 -15.943 -23.373  0.00  0.00    +0.000 OA
ENDBRANCH   9  14
ENDBRANCH   3   4
BRANCH   1  16
ATOM     15  C   UNL     1     -42.619 -19.074 -27.929  0.00  0.00    +0.000 C 
ATOM     16  C   UNL     1     -43.089 -18.536 -26.586  0.00  0.00    +0.000 C 
BRANCH  16  17
ATOM     17  O   UNL     1     -43.564 -19.569 -25.720  0.00  0.00    +0.000 OA
BRANCH  17  18
ATOM     18  C   UNL     1     -44.754 -19.510 -24.983  0.00  0.00    +0.000 C 
ATOM     19  O   UNL     1     -45.872 -19.675 -25.544  0.00  0.00    +0.000 OA
BRANCH  18  20
ATOM     20  C   UNL     1     -44.692 -19.245 -23.543  0.00  0.00    +0.000 A 
ATOM     21  C   UNL     1     -45.715 -18.650 -22.793  0.00  0.00    +0.000 A 
ATOM     22  C   UNL     1     -45.328 -18.550 -21.457  0.00  0.00    +0.000 A 
ATOM     23  C   UNL     1     -44.104 -19.026 -21.175  0.00  0.00    +0.000 A 
ATOM     24  C   UNL     1     -43.721 -18.909 -19.761  0.00  0.00    +0.000 C 
ATOM     25  C   UNL     1     -44.970 -18.242 -19.144  0.00  0.00    +0.000 C 
ATOM     26  C   UNL     1     -46.009 -18.014 -20.266  0.00  0.00    +0.000 C 
ATOM     27  S   UNL     1     -43.362 -19.625 -22.550  0.00  0.00    +0.000 S 
ENDBRANCH  18  20
ENDBRANCH  17  18
ENDBRANCH  16  17
ENDBRANCH   1  16
TORSDOF 7
ENDMDL
