MODEL 1
REMARK VINA RESULT:      -7.3      0.000      0.000
REMARK  Name = ZINC000031810539
REMARK  1 active torsions:
REMARK  status: ('A' for Active; 'I' for Inactive)
REMARK    1  A    between atoms: C_7  and  C_24
REMARK                            x       y       z     vdW  Elec       q    Type
REMARK                         _______ _______ _______ _____ _____    ______ ____
ROOT
ATOM      1  C   UNL     1     -46.479 -15.186 -20.952  0.00  0.00    +0.000 C 
ATOM      2  C   UNL     1     -46.011 -14.792 -22.311  0.00  0.00    +0.000 A 
ATOM      3  N   UNL     1     -46.203 -13.554 -22.796  0.00  0.00    +0.000 NA
ATOM      4  N   UNL     1     -45.767 -13.535 -24.042  0.00  0.00    +0.000 N 
ATOM      5  C   UNL     1     -45.282 -14.751 -24.376  0.00  0.00    +0.000 A 
ATOM      6  C   UNL     1     -45.388 -15.601 -23.267  0.00  0.00    +0.000 A 
ATOM      7  C   UNL     1     -45.071 -17.085 -23.159  0.00  0.00    +0.000 C 
ATOM      8  S   UNL     1     -43.591 -17.567 -24.091  0.00  0.00    +0.000 S 
ATOM      9  C   UNL     1     -44.548 -17.557 -25.615  0.00  0.00    +0.000 C 
ATOM     10  C   UNL     1     -44.346 -16.252 -26.284  0.00  0.00    +0.000 C 
ATOM     11  O   UNL     1     -43.845 -16.238 -27.438  0.00  0.00    +0.000 OA
ATOM     12  N   UNL     1     -44.704 -15.013 -25.668  0.00  0.00    +0.000 N 
ATOM     13  H   UNL     1     -44.527 -14.212 -26.213  0.00  0.00    +0.000 HD
ATOM     14  C   UNL     1     -45.812 -12.355 -24.857  0.00  0.00    +0.000 A 
ATOM     15  N   UNL     1     -45.427 -11.150 -24.338  0.00  0.00    +0.000 NA
ATOM     16  C   UNL     1     -45.485  -9.999 -25.080  0.00  0.00    +0.000 A 
ATOM     17  N   UNL     1     -45.950 -10.024 -26.365  0.00  0.00    +0.000 NA
ATOM     18  C   UNL     1     -46.346 -11.214 -26.876  0.00  0.00    +0.000 A 
ATOM     19  N   UNL     1     -46.881 -11.426 -28.084  0.00  0.00    +0.000 N 
ATOM     20  C   UNL     1     -47.152 -12.759 -28.056  0.00  0.00    +0.000 A 
ATOM     21  N   UNL     1     -46.812 -13.366 -26.886  0.00  0.00    +0.000 NA
ATOM     22  C   UNL     1     -46.296 -12.360 -26.165  0.00  0.00    +0.000 A 
ATOM     23  H   UNL     1     -47.037 -10.780 -28.810  0.00  0.00    +0.000 HD
ENDROOT
BRANCH   7  24
ATOM     24  C   UNL     1     -44.947 -17.595 -21.754  0.00  0.00    +0.000 A 
ATOM     25  C   UNL     1     -43.814 -17.261 -21.005  0.00  0.00    +0.000 A 
ATOM     26  C   UNL     1     -43.677 -17.721 -19.691  0.00  0.00    +0.000 A 
ATOM     27  C   UNL     1     -44.676 -18.517 -19.123  0.00  0.00    +0.000 A 
ATOM     28  C   UNL     1     -45.812 -18.851 -19.865  0.00  0.00    +0.000 A 
ATOM     29  F   UNL     1     -46.780 -19.621 -19.313  0.00  0.00    +0.000 F 
ATOM     30  C   UNL     1     -45.950 -18.392 -21.177  0.00  0.00    +0.000 A 
ENDBRANCH   7  24
TORSDOF 1
ENDMDL
MODEL 2
REMARK VINA RESULT:      -6.8     10.869     14.255
REMARK  Name = ZINC000031810539
REMARK  1 active torsions:
REMARK  status: ('A' for Active; 'I' for Inactive)
REMARK    1  A    between atoms: C_7  and  C_24
REMARK                            x       y       z     vdW  Elec       q    Type
REMARK                         _______ _______ _______ _____ _____    ______ ____
ROOT
ATOM      1  C   UNL     1     -46.230  -3.878 -33.651  0.00  0.00    +0.000 C 
ATOM      2  C   UNL     1     -45.549  -5.196 -33.517  0.00  0.00    +0.000 A 
ATOM      3  N   UNL     1     -45.904  -6.257 -34.262  0.00  0.00    +0.000 NA
ATOM      4  N   UNL     1     -45.192  -7.292 -33.856  0.00  0.00    +0.000 N 
ATOM      5  C   UNL     1     -44.366  -6.917 -32.855  0.00  0.00    +0.000 A 
ATOM      6  C   UNL     1     -44.537  -5.547 -32.618  0.00  0.00    +0.000 A 
ATOM      7  C   UNL     1     -43.914  -4.673 -31.539  0.00  0.00    +0.000 C 
ATOM      8  S   UNL     1     -42.179  -5.085 -31.203  0.00  0.00    +0.000 S 
ATOM      9  C   UNL     1     -42.707  -6.489 -30.208  0.00  0.00    +0.000 C 
ATOM     10  C   UNL     1     -42.661  -7.703 -31.054  0.00  0.00    +0.000 C 
ATOM     11  O   UNL     1     -41.910  -8.651 -30.708  0.00  0.00    +0.000 OA
ATOM     12  N   UNL     1     -43.443  -7.836 -32.244  0.00  0.00    +0.000 N 
ATOM     13  H   UNL     1     -43.333  -8.691 -32.719  0.00  0.00    +0.000 HD
ATOM     14  C   UNL     1     -45.314  -8.592 -34.452  0.00  0.00    +0.000 A 
ATOM     15  N   UNL     1     -45.365  -8.719 -35.812  0.00  0.00    +0.000 NA
ATOM     16  C   UNL     1     -45.511  -9.944 -36.412  0.00  0.00    +0.000 A 
ATOM     17  N   UNL     1     -45.626 -11.077 -35.658  0.00  0.00    +0.000 NA
ATOM     18  C   UNL     1     -45.590 -10.951 -34.310  0.00  0.00    +0.000 A 
ATOM     19  N   UNL     1     -45.745 -11.933 -33.412  0.00  0.00    +0.000 N 
ATOM     20  C   UNL     1     -45.690 -11.260 -32.231  0.00  0.00    +0.000 A 
ATOM     21  N   UNL     1     -45.515  -9.917 -32.367  0.00  0.00    +0.000 NA
ATOM     22  C   UNL     1     -45.446  -9.758 -33.697  0.00  0.00    +0.000 A 
ATOM     23  H   UNL     1     -45.866 -12.897 -33.568  0.00  0.00    +0.000 HD
ENDROOT
BRANCH   7  24
ATOM     24  C   UNL     1     -44.022  -3.199 -31.792  0.00  0.00    +0.000 A 
ATOM     25  C   UNL     1     -45.045  -2.474 -31.170  0.00  0.00    +0.000 A 
ATOM     26  C   UNL     1     -45.165  -1.098 -31.387  0.00  0.00    +0.000 A 
ATOM     27  C   UNL     1     -44.260  -0.441 -32.227  0.00  0.00    +0.000 A 
ATOM     28  C   UNL     1     -43.234  -1.159 -32.848  0.00  0.00    +0.000 A 
ATOM     29  F   UNL     1     -42.358  -0.523 -33.660  0.00  0.00    +0.000 F 
ATOM     30  C   UNL     1     -43.113  -2.535 -32.632  0.00  0.00    +0.000 A 
ENDBRANCH   7  24
TORSDOF 1
ENDMDL
MODEL 3
REMARK VINA RESULT:      -6.7      2.806      3.521
REMARK  Name = ZINC000031810539
REMARK  1 active torsions:
REMARK  status: ('A' for Active; 'I' for Inactive)
REMARK    1  A    between atoms: C_7  and  C_24
REMARK                            x       y       z     vdW  Elec       q    Type
REMARK                         _______ _______ _______ _____ _____    ______ ____
ROOT
ATOM      1  C   UNL     1     -46.532 -15.886 -24.461  0.00  0.00    +0.000 C 
ATOM      2  C   UNL     1     -46.057 -14.738 -25.283  0.00  0.00    +0.000 A 
ATOM      3  N   UNL     1     -46.599 -13.514 -25.172  0.00  0.00    +0.000 NA
ATOM      4  N   UNL     1     -46.039 -12.739 -26.083  0.00  0.00    +0.000 N 
ATOM      5  C   UNL     1     -45.127 -13.444 -26.787  0.00  0.00    +0.000 A 
ATOM      6  C   UNL     1     -45.075 -14.749 -26.280  0.00  0.00    +0.000 A 
ATOM      7  C   UNL     1     -44.284 -15.947 -26.785  0.00  0.00    +0.000 C 
ATOM      8  S   UNL     1     -42.621 -15.508 -27.364  0.00  0.00    +0.000 S 
ATOM      9  C   UNL     1     -43.319 -14.913 -28.913  0.00  0.00    +0.000 C 
ATOM     10  C   UNL     1     -43.493 -13.445 -28.812  0.00  0.00    +0.000 C 
ATOM     11  O   UNL     1     -42.884 -12.708 -29.629  0.00  0.00    +0.000 OA
ATOM     12  N   UNL     1     -44.332 -12.842 -27.824  0.00  0.00    +0.000 N 
ATOM     13  H   UNL     1     -44.374 -11.859 -27.860  0.00  0.00    +0.000 HD
ATOM     14  C   UNL     1     -46.383 -11.353 -26.233  0.00  0.00    +0.000 A 
ATOM     15  N   UNL     1     -46.506 -10.556 -25.130  0.00  0.00    +0.000 NA
ATOM     16  C   UNL     1     -46.862  -9.236 -25.236  0.00  0.00    +0.000 A 
ATOM     17  N   UNL     1     -47.120  -8.683 -26.459  0.00  0.00    +0.000 NA
ATOM     18  C   UNL     1     -47.012  -9.475 -27.552  0.00  0.00    +0.000 A 
ATOM     19  N   UNL     1     -47.281  -9.131 -28.817  0.00  0.00    +0.000 N 
ATOM     20  C   UNL     1     -47.077 -10.297 -29.488  0.00  0.00    +0.000 A 
ATOM     21  N   UNL     1     -46.703 -11.335 -28.690  0.00  0.00    +0.000 NA
ATOM     22  C   UNL     1     -46.662 -10.776 -27.472  0.00  0.00    +0.000 A 
ATOM     23  H   UNL     1     -47.555  -8.255 -29.172  0.00  0.00    +0.000 HD
ENDROOT
BRANCH   7  24
ATOM     24  C   UNL     1     -44.174 -17.079 -25.808  0.00  0.00    +0.000 A 
ATOM     25  C   UNL     1     -43.387 -16.916 -24.662  0.00  0.00    +0.000 A 
ATOM     26  C   UNL     1     -43.273 -17.956 -23.734  0.00  0.00    +0.000 A 
ATOM     27  C   UNL     1     -43.947 -19.162 -23.949  0.00  0.00    +0.000 A 
ATOM     28  C   UNL     1     -44.737 -19.329 -25.089  0.00  0.00    +0.000 A 
ATOM     29  F   UNL     1     -45.391 -20.496 -25.295  0.00  0.00    +0.000 F 
ATOM     30  C   UNL     1     -44.853 -18.290 -26.017  0.00  0.00    +0.000 A 
ENDBRANCH   7  24
TORSDOF 1
ENDMDL
