MODEL 1
REMARK VINA RESULT:      -7.2      0.000      0.000
REMARK  Name = ZINC000230157758 PubChem-100900615
REMARK  9 active torsions:
REMARK  status: ('A' for Active; 'I' for Inactive)
REMARK    1  A    between atoms: N_13  and  C_20
REMARK    2  A    between atoms: C_20  and  C_21
REMARK    3  A    between atoms: C_21  and  O_22
REMARK    4  A    between atoms: C_21  and  C_24
REMARK    5  A    between atoms: C_24  and  O_25
REMARK    6  A    between atoms: C_24  and  C_27
REMARK    7  A    between atoms: C_27  and  O_28
REMARK    8  A    between atoms: C_27  and  C_30
REMARK    9  A    between atoms: C_30  and  O_31
REMARK                            x       y       z     vdW  Elec       q    Type
REMARK                         _______ _______ _______ _____ _____    ______ ____
ROOT
ATOM      1  C   UNL     1     -47.199  -4.226 -23.071  0.00  0.00    +0.000 C 
ATOM      2  C   UNL     1     -47.145  -4.117 -24.557  0.00  0.00    +0.000 A 
ATOM      3  C   UNL     1     -46.902  -5.273 -25.306  0.00  0.00    +0.000 A 
ATOM      4  C   UNL     1     -46.845  -5.207 -26.700  0.00  0.00    +0.000 A 
ATOM      5  C   UNL     1     -46.604  -6.352 -27.455  0.00  0.00    +0.000 A 
ATOM      6  C   UNL     1     -46.550  -6.264 -28.852  0.00  0.00    +0.000 A 
ATOM      7  C   UNL     1     -46.742  -5.014 -29.478  0.00  0.00    +0.000 A 
ATOM      8  N   UNL     1     -46.973  -3.909 -28.712  0.00  0.00    +0.000 NA
ATOM      9  C   UNL     1     -47.030  -3.973 -27.355  0.00  0.00    +0.000 A 
ATOM     10  C   UNL     1     -47.271  -2.818 -26.607  0.00  0.00    +0.000 A 
ATOM     11  C   UNL     1     -47.330  -2.883 -25.210  0.00  0.00    +0.000 A 
ATOM     12  C   UNL     1     -47.590  -1.629 -24.448  0.00  0.00    +0.000 C 
ATOM     13  N   UNL     1     -46.693  -4.921 -30.842  0.00  0.00    +0.000 N 
ATOM     14  C   UNL     1     -46.452  -6.036 -31.599  0.00  0.00    +0.000 A 
ATOM     15  O   UNL     1     -46.399  -5.959 -32.856  0.00  0.00    +0.000 OA
ATOM     16  N   UNL     1     -46.266  -7.243 -31.002  0.00  0.00    +0.000 N 
ATOM     17  C   UNL     1     -46.310  -7.383 -29.654  0.00  0.00    +0.000 A 
ATOM     18  O   UNL     1     -46.133  -8.521 -29.142  0.00  0.00    +0.000 OA
ATOM     19  H   UNL     1     -46.095  -8.034 -31.562  0.00  0.00    +0.000 HD
ENDROOT
BRANCH  13  20
ATOM     20  C   UNL     1     -46.905  -3.628 -31.496  0.00  0.00    +0.000 C 
BRANCH  20  21
ATOM     21  C   UNL     1     -45.657  -3.202 -32.259  0.00  0.00    +0.000 C 
BRANCH  21  22
ATOM     22  O   UNL     1     -46.029  -2.692 -33.505  0.00  0.00    +0.000 OA
ATOM     23  H   UNL     1     -45.479  -1.922 -33.716  0.00  0.00    +0.000 HD
ENDBRANCH  21  22
BRANCH  21  24
ATOM     24  C   UNL     1     -44.875  -2.144 -31.470  0.00  0.00    +0.000 C 
BRANCH  24  25
ATOM     25  O   UNL     1     -45.622  -1.704 -30.375  0.00  0.00    +0.000 OA
ATOM     26  H   UNL     1     -46.564  -1.703 -30.605  0.00  0.00    +0.000 HD
ENDBRANCH  24  25
BRANCH  24  27
ATOM     27  C   UNL     1     -44.448  -0.937 -32.318  0.00  0.00    +0.000 C 
BRANCH  27  28
ATOM     28  O   UNL     1     -44.475   0.229 -31.553  0.00  0.00    +0.000 OA
ATOM     29  H   UNL     1     -43.566   0.520 -31.375  0.00  0.00    +0.000 HD
ENDBRANCH  27  28
BRANCH  27  30
ATOM     30  C   UNL     1     -43.074  -1.104 -32.957  0.00  0.00    +0.000 C 
BRANCH  30  31
ATOM     31  O   UNL     1     -43.185  -1.784 -34.169  0.00  0.00    +0.000 OA
ATOM     32  H   UNL     1     -44.110  -1.773 -34.462  0.00  0.00    +0.000 HD
ENDBRANCH  30  31
ENDBRANCH  27  30
ENDBRANCH  24  27
ENDBRANCH  21  24
ENDBRANCH  20  21
ENDBRANCH  13  20
TORSDOF 9
ENDMDL
MODEL 2
REMARK VINA RESULT:      -7.0      1.362      1.965
REMARK  Name = ZINC000230157758 PubChem-100900615
REMARK  9 active torsions:
REMARK  status: ('A' for Active; 'I' for Inactive)
REMARK    1  A    between atoms: N_13  and  C_20
REMARK    2  A    between atoms: C_20  and  C_21
REMARK    3  A    between atoms: C_21  and  O_22
REMARK    4  A    between atoms: C_21  and  C_24
REMARK    5  A    between atoms: C_24  and  O_25
REMARK    6  A    between atoms: C_24  and  C_27
REMARK    7  A    between atoms: C_27  and  O_28
REMARK    8  A    between atoms: C_27  and  C_30
REMARK    9  A    between atoms: C_30  and  O_31
REMARK                            x       y       z     vdW  Elec       q    Type
REMARK                         _______ _______ _______ _____ _____    ______ ____
ROOT
ATOM      1  C   UNL     1     -47.055  -3.368 -23.012  0.00  0.00    +0.000 C 
ATOM      2  C   UNL     1     -47.079  -3.798 -24.440  0.00  0.00    +0.000 A 
ATOM      3  C   UNL     1     -46.767  -5.127 -24.746  0.00  0.00    +0.000 A 
ATOM      4  C   UNL     1     -46.779  -5.563 -26.072  0.00  0.00    +0.000 A 
ATOM      5  C   UNL     1     -46.471  -6.884 -26.388  0.00  0.00    +0.000 A 
ATOM      6  C   UNL     1     -46.488  -7.301 -27.724  0.00  0.00    +0.000 A 
ATOM      7  C   UNL     1     -46.820  -6.377 -28.737  0.00  0.00    +0.000 A 
ATOM      8  N   UNL     1     -47.115  -5.088 -28.399  0.00  0.00    +0.000 NA
ATOM      9  C   UNL     1     -47.103  -4.663 -27.108  0.00  0.00    +0.000 A 
ATOM     10  C   UNL     1     -47.414  -3.336 -26.802  0.00  0.00    +0.000 A 
ATOM     11  C   UNL     1     -47.403  -2.897 -25.473  0.00  0.00    +0.000 A 
ATOM     12  C   UNL     1     -47.740  -1.473 -25.189  0.00  0.00    +0.000 C 
ATOM     13  N   UNL     1     -46.841  -6.777 -30.045  0.00  0.00    +0.000 N 
ATOM     14  C   UNL     1     -46.536  -8.071 -30.372  0.00  0.00    +0.000 A 
ATOM     15  O   UNL     1     -46.546  -8.449 -31.576  0.00  0.00    +0.000 OA
ATOM     16  N   UNL     1     -46.215  -8.967 -29.402  0.00  0.00    +0.000 N 
ATOM     17  C   UNL     1     -46.185  -8.615 -28.092  0.00  0.00    +0.000 A 
ATOM     18  O   UNL     1     -45.884  -9.478 -27.224  0.00  0.00    +0.000 OA
ATOM     19  H   UNL     1     -45.999  -9.893 -29.656  0.00  0.00    +0.000 HD
ENDROOT
BRANCH  13  20
ATOM     20  C   UNL     1     -47.198  -5.824 -31.098  0.00  0.00    +0.000 C 
BRANCH  20  21
ATOM     21  C   UNL     1     -45.946  -5.277 -31.772  0.00  0.00    +0.000 C 
BRANCH  21  22
ATOM     22  O   UNL     1     -45.906  -5.715 -33.098  0.00  0.00    +0.000 OA
ATOM     23  H   UNL     1     -45.608  -4.991 -33.669  0.00  0.00    +0.000 HD
ENDBRANCH  21  22
BRANCH  21  24
ATOM     24  C   UNL     1     -45.931  -3.744 -31.725  0.00  0.00    +0.000 C 
BRANCH  24  25
ATOM     25  O   UNL     1     -47.067  -3.267 -31.067  0.00  0.00    +0.000 OA
ATOM     26  H   UNL     1     -47.862  -3.585 -31.523  0.00  0.00    +0.000 HD
ENDBRANCH  24  25
BRANCH  24  27
ATOM     27  C   UNL     1     -45.828  -3.088 -33.110  0.00  0.00    +0.000 C 
BRANCH  27  28
ATOM     28  O   UNL     1     -47.099  -2.861 -33.637  0.00  0.00    +0.000 OA
ATOM     29  H   UNL     1     -47.759  -3.343 -33.113  0.00  0.00    +0.000 HD
ENDBRANCH  27  28
BRANCH  27  30
ATOM     30  C   UNL     1     -45.033  -1.787 -33.104  0.00  0.00    +0.000 C 
BRANCH  30  31
ATOM     31  O   UNL     1     -44.382  -1.615 -34.325  0.00  0.00    +0.000 OA
ATOM     32  H   UNL     1     -44.199  -2.482 -34.720  0.00  0.00    +0.000 HD
ENDBRANCH  30  31
ENDBRANCH  27  30
ENDBRANCH  24  27
ENDBRANCH  21  24
ENDBRANCH  20  21
ENDBRANCH  13  20
TORSDOF 9
ENDMDL
MODEL 3
REMARK VINA RESULT:      -6.1     10.756     13.531
REMARK  Name = ZINC000230157758 PubChem-100900615
REMARK  9 active torsions:
REMARK  status: ('A' for Active; 'I' for Inactive)
REMARK    1  A    between atoms: N_13  and  C_20
REMARK    2  A    between atoms: C_20  and  C_21
REMARK    3  A    between atoms: C_21  and  O_22
REMARK    4  A    between atoms: C_21  and  C_24
REMARK    5  A    between atoms: C_24  and  O_25
REMARK    6  A    between atoms: C_24  and  C_27
REMARK    7  A    between atoms: C_27  and  O_28
REMARK    8  A    between atoms: C_27  and  C_30
REMARK    9  A    between atoms: C_30  and  O_31
REMARK                            x       y       z     vdW  Elec       q    Type
REMARK                         _______ _______ _______ _____ _____    ______ ____
ROOT
ATOM      1  C   UNL     1     -46.625 -15.203 -17.951  0.00  0.00    +0.000 C 
ATOM      2  C   UNL     1     -46.383 -15.439 -19.403  0.00  0.00    +0.000 A 
ATOM      3  C   UNL     1     -45.721 -16.609 -19.792  0.00  0.00    +0.000 A 
ATOM      4  C   UNL     1     -45.478 -16.861 -21.143  0.00  0.00    +0.000 A 
ATOM      5  C   UNL     1     -44.820 -18.023 -21.541  0.00  0.00    +0.000 A 
ATOM      6  C   UNL     1     -44.585 -18.256 -22.902  0.00  0.00    +0.000 A 
ATOM      7  C   UNL     1     -45.020 -17.311 -23.855  0.00  0.00    +0.000 A 
ATOM      8  N   UNL     1     -45.659 -16.181 -23.436  0.00  0.00    +0.000 NA
ATOM      9  C   UNL     1     -45.897 -15.935 -22.120  0.00  0.00    +0.000 A 
ATOM     10  C   UNL     1     -46.557 -14.766 -21.732  0.00  0.00    +0.000 A 
ATOM     11  C   UNL     1     -46.802 -14.513 -20.378  0.00  0.00    +0.000 A 
ATOM     12  C   UNL     1     -47.510 -13.254 -20.004  0.00  0.00    +0.000 C 
ATOM     13  N   UNL     1     -44.797 -17.534 -25.186  0.00  0.00    +0.000 N 
ATOM     14  C   UNL     1     -44.147 -18.668 -25.593  0.00  0.00    +0.000 A 
ATOM     15  O   UNL     1     -43.930 -18.879 -26.818  0.00  0.00    +0.000 OA
ATOM     16  N   UNL     1     -43.726 -19.582 -24.681  0.00  0.00    +0.000 N 
ATOM     17  C   UNL     1     -43.929 -19.405 -23.351  0.00  0.00    +0.000 A 
ATOM     18  O   UNL     1     -43.523 -20.279 -22.539  0.00  0.00    +0.000 OA
ATOM     19  H   UNL     1     -43.261 -20.392 -24.992  0.00  0.00    +0.000 HD
ENDROOT
BRANCH  13  20
ATOM     20  C   UNL     1     -45.258 -16.561 -26.180  0.00  0.00    +0.000 C 
BRANCH  20  21
ATOM     21  C   UNL     1     -44.139 -15.592 -26.540  0.00  0.00    +0.000 C 
BRANCH  21  22
ATOM     22  O   UNL     1     -43.902 -15.652 -27.916  0.00  0.00    +0.000 OA
ATOM     23  H   UNL     1     -43.234 -14.993 -28.158  0.00  0.00    +0.000 HD
ENDBRANCH  21  22
BRANCH  21  24
ATOM     24  C   UNL     1     -44.510 -14.161 -26.133  0.00  0.00    +0.000 C 
BRANCH  24  25
ATOM     25  O   UNL     1     -44.063 -13.893 -24.837  0.00  0.00    +0.000 OA
ATOM     26  H   UNL     1     -43.199 -13.455 -24.877  0.00  0.00    +0.000 HD
ENDBRANCH  24  25
BRANCH  24  27
ATOM     27  C   UNL     1     -46.013 -13.865 -26.228  0.00  0.00    +0.000 C 
BRANCH  27  28
ATOM     28  O   UNL     1     -46.518 -13.499 -24.981  0.00  0.00    +0.000 OA
ATOM     29  H   UNL     1     -46.398 -12.545 -24.850  0.00  0.00    +0.000 HD
ENDBRANCH  27  28
BRANCH  27  30
ATOM     30  C   UNL     1     -46.354 -12.793 -27.257  0.00  0.00    +0.000 C 
BRANCH  30  31
ATOM     31  O   UNL     1     -47.691 -12.901 -27.640  0.00  0.00    +0.000 OA
ATOM     32  H   UNL     1     -47.774 -13.565 -28.342  0.00  0.00    +0.000 HD
ENDBRANCH  30  31
ENDBRANCH  27  30
ENDBRANCH  24  27
ENDBRANCH  21  24
ENDBRANCH  20  21
ENDBRANCH  13  20
TORSDOF 9
ENDMDL
