MODEL 1
REMARK VINA RESULT:      -6.2      0.000      0.000
REMARK  Name = ZINC000018195880 ZINC18195880
REMARK  2 active torsions:
REMARK  status: ('A' for Active; 'I' for Inactive)
REMARK    1  A    between atoms: C_6  and  C_21
REMARK    2  A    between atoms: C_11  and  O_12
REMARK                            x       y       z     vdW  Elec       q    Type
REMARK                         _______ _______ _______ _____ _____    ______ ____
ROOT
ATOM      1  C   UNL     1     -44.007  -0.134 -32.182  0.00  0.00    +0.000 C 
ATOM      2  C   UNL     1     -44.228  -1.627 -32.287  0.00  0.00    +0.000 C 
ATOM      3  C   UNL     1     -45.250  -2.045 -31.228  0.00  0.00    +0.000 C 
ATOM      4  C   UNL     1     -45.368  -3.538 -31.056  0.00  0.00    +0.000 C 
ATOM      5  C   UNL     1     -44.341  -4.378 -31.382  0.00  0.00    +0.000 C 
ATOM      6  C   UNL     1     -44.467  -5.902 -31.264  0.00  0.00    +0.000 C 
ATOM      7  C   UNL     1     -45.695  -6.299 -30.503  0.00  0.00    +0.000 A 
ATOM      8  C   UNL     1     -46.679  -5.427 -30.178  0.00  0.00    +0.000 A 
ATOM      9  N   UNL     1     -47.697  -6.046 -29.557  0.00  0.00    +0.000 N 
ATOM     10  N   UNL     1     -47.381  -7.336 -29.484  0.00  0.00    +0.000 NA
ATOM     11  C   UNL     1     -46.171  -7.506 -30.058  0.00  0.00    +0.000 A 
ATOM     12  N   UNL     1     -46.579  -4.037 -30.459  0.00  0.00    +0.000 N 
ATOM     13  C   UNL     1     -43.070  -3.815 -31.898  0.00  0.00    +0.000 C 
ATOM     14  O   UNL     1     -42.101  -4.572 -32.167  0.00  0.00    +0.000 OA
ATOM     15  C   UNL     1     -42.895  -2.335 -32.055  0.00  0.00    +0.000 C 
ATOM     16  C   UNL     1     -44.757  -1.935 -33.681  0.00  0.00    +0.000 C 
ATOM     17  H   UNL     1     -48.521  -5.625 -29.219  0.00  0.00    +0.000 HD
ATOM     18  H   UNL     1     -47.323  -3.428 -30.248  0.00  0.00    +0.000 HD
ENDROOT
BRANCH   6  19
ATOM     19  C   UNL     1     -44.456  -6.557 -32.616  0.00  0.00    +0.000 A 
ATOM     20  C   UNL     1     -43.577  -7.609 -32.908  0.00  0.00    +0.000 A 
ATOM     21  C   UNL     1     -43.595  -8.183 -34.180  0.00  0.00    +0.000 A 
ATOM     22  N   UNL     1     -44.458  -7.720 -35.124  0.00  0.00    +0.000 NA
ATOM     23  C   UNL     1     -45.317  -6.698 -34.865  0.00  0.00    +0.000 A 
ATOM     24  C   UNL     1     -45.330  -6.097 -33.604  0.00  0.00    +0.000 A 
ENDBRANCH   6  19
BRANCH  11  25
ATOM     25  O   UNL     1     -45.529  -8.732 -30.176  0.00  0.00    +0.000 OA
ATOM     26  H   UNL     1     -44.735  -8.893 -29.705  0.00  0.00    +0.000 HD
ENDBRANCH  11  25
TORSDOF 2
ENDMDL
MODEL 2
REMARK VINA RESULT:      -6.2      2.298      3.782
REMARK  Name = ZINC000018195880 ZINC18195880
REMARK  2 active torsions:
REMARK  status: ('A' for Active; 'I' for Inactive)
REMARK    1  A    between atoms: C_6  and  C_21
REMARK    2  A    between atoms: C_11  and  O_12
REMARK                            x       y       z     vdW  Elec       q    Type
REMARK                         _______ _______ _______ _____ _____    ______ ____
ROOT
ATOM      1  C   UNL     1     -43.648  -0.533 -33.374  0.00  0.00    +0.000 C 
ATOM      2  C   UNL     1     -43.997  -1.808 -32.636  0.00  0.00    +0.000 C 
ATOM      3  C   UNL     1     -44.588  -2.804 -33.636  0.00  0.00    +0.000 C 
ATOM      4  C   UNL     1     -45.212  -4.014 -32.988  0.00  0.00    +0.000 C 
ATOM      5  C   UNL     1     -45.680  -3.977 -31.706  0.00  0.00    +0.000 C 
ATOM      6  C   UNL     1     -46.267  -5.214 -31.015  0.00  0.00    +0.000 C 
ATOM      7  C   UNL     1     -46.513  -6.326 -31.990  0.00  0.00    +0.000 A 
ATOM      8  C   UNL     1     -46.052  -6.311 -33.263  0.00  0.00    +0.000 A 
ATOM      9  N   UNL     1     -46.352  -7.452 -33.906  0.00  0.00    +0.000 N 
ATOM     10  N   UNL     1     -47.007  -8.224 -33.043  0.00  0.00    +0.000 NA
ATOM     11  C   UNL     1     -47.109  -7.556 -31.874  0.00  0.00    +0.000 A 
ATOM     12  N   UNL     1     -45.367  -5.190 -33.804  0.00  0.00    +0.000 N 
ATOM     13  C   UNL     1     -45.596  -2.713 -30.932  0.00  0.00    +0.000 C 
ATOM     14  O   UNL     1     -46.057  -2.651 -29.763  0.00  0.00    +0.000 OA
ATOM     15  C   UNL     1     -45.013  -1.477 -31.546  0.00  0.00    +0.000 C 
ATOM     16  C   UNL     1     -42.723  -2.369 -32.022  0.00  0.00    +0.000 C 
ATOM     17  H   UNL     1     -46.129  -7.675 -34.839  0.00  0.00    +0.000 HD
ATOM     18  H   UNL     1     -45.006  -5.217 -34.720  0.00  0.00    +0.000 HD
ENDROOT
BRANCH   6  19
ATOM     19  C   UNL     1     -45.382  -5.687 -29.897  0.00  0.00    +0.000 A 
ATOM     20  C   UNL     1     -45.897  -5.940 -28.619  0.00  0.00    +0.000 A 
ATOM     21  C   UNL     1     -45.038  -6.370 -27.607  0.00  0.00    +0.000 A 
ATOM     22  N   UNL     1     -43.712  -6.537 -27.864  0.00  0.00    +0.000 NA
ATOM     23  C   UNL     1     -43.189  -6.293 -29.096  0.00  0.00    +0.000 A 
ATOM     24  C   UNL     1     -44.016  -5.862 -30.135  0.00  0.00    +0.000 A 
ENDBRANCH   6  19
BRANCH  11  25
ATOM     25  O   UNL     1     -47.722  -8.064 -30.736  0.00  0.00    +0.000 OA
ATOM     26  H   UNL     1     -47.719  -7.569 -29.940  0.00  0.00    +0.000 HD
ENDBRANCH  11  25
TORSDOF 2
ENDMDL
MODEL 3
REMARK VINA RESULT:      -5.9     13.425     16.037
REMARK  Name = ZINC000018195880 ZINC18195880
REMARK  2 active torsions:
REMARK  status: ('A' for Active; 'I' for Inactive)
REMARK    1  A    between atoms: C_6  and  C_21
REMARK    2  A    between atoms: C_11  and  O_12
REMARK                            x       y       z     vdW  Elec       q    Type
REMARK                         _______ _______ _______ _____ _____    ______ ____
ROOT
ATOM      1  C   UNL     1     -46.175 -15.476 -18.221  0.00  0.00    +0.000 C 
ATOM      2  C   UNL     1     -45.559 -16.167 -19.419  0.00  0.00    +0.000 C 
ATOM      3  C   UNL     1     -45.902 -15.364 -20.676  0.00  0.00    +0.000 C 
ATOM      4  C   UNL     1     -45.568 -16.079 -21.960  0.00  0.00    +0.000 C 
ATOM      5  C   UNL     1     -45.491 -17.441 -22.021  0.00  0.00    +0.000 C 
ATOM      6  C   UNL     1     -45.098 -18.179 -23.307  0.00  0.00    +0.000 C 
ATOM      7  C   UNL     1     -45.103 -17.263 -24.493  0.00  0.00    +0.000 A 
ATOM      8  C   UNL     1     -45.207 -15.917 -24.389  0.00  0.00    +0.000 A 
ATOM      9  N   UNL     1     -45.119 -15.324 -25.592  0.00  0.00    +0.000 N 
ATOM     10  N   UNL     1     -44.946 -16.290 -26.490  0.00  0.00    +0.000 NA
ATOM     11  C   UNL     1     -44.930 -17.473 -25.838  0.00  0.00    +0.000 A 
ATOM     12  N   UNL     1     -45.411 -15.270 -23.141  0.00  0.00    +0.000 N 
ATOM     13  C   UNL     1     -45.763 -18.245 -20.804  0.00  0.00    +0.000 C 
ATOM     14  O   UNL     1     -45.734 -19.502 -20.852  0.00  0.00    +0.000 OA
ATOM     15  C   UNL     1     -46.130 -17.580 -19.513  0.00  0.00    +0.000 C 
ATOM     16  C   UNL     1     -44.052 -16.216 -19.219  0.00  0.00    +0.000 C 
ATOM     17  H   UNL     1     -45.172 -14.358 -25.775  0.00  0.00    +0.000 HD
ATOM     18  H   UNL     1     -45.444 -14.287 -23.084  0.00  0.00    +0.000 HD
ENDROOT
BRANCH   6  19
ATOM     19  C   UNL     1     -43.759 -18.845 -23.168  0.00  0.00    +0.000 A 
ATOM     20  C   UNL     1     -42.640 -18.139 -22.705  0.00  0.00    +0.000 A 
ATOM     21  C   UNL     1     -41.413 -18.796 -22.598  0.00  0.00    +0.000 A 
ATOM     22  N   UNL     1     -41.309 -20.107 -22.944  0.00  0.00    +0.000 NA
ATOM     23  C   UNL     1     -42.381 -20.810 -23.400  0.00  0.00    +0.000 A 
ATOM     24  C   UNL     1     -43.626 -20.190 -23.521  0.00  0.00    +0.000 A 
ENDBRANCH   6  19
BRANCH  11  25
ATOM     25  O   UNL     1     -44.753 -18.703 -26.457  0.00  0.00    +0.000 OA
ATOM     26  H   UNL     1     -45.386 -19.013 -27.075  0.00  0.00    +0.000 HD
ENDBRANCH  11  25
TORSDOF 2
ENDMDL
