MODEL 1
REMARK VINA RESULT:      -7.9      0.000      0.000
REMARK  Name = ZINC000096117524
REMARK  4 active torsions:
REMARK  status: ('A' for Active; 'I' for Inactive)
REMARK    1  A    between atoms: C_4  and  C_30
REMARK    2  A    between atoms: C_8  and  O_9
REMARK    3  A    between atoms: C_10  and  O_11
REMARK    4  A    between atoms: C_14  and  C_21
REMARK                            x       y       z     vdW  Elec       q    Type
REMARK                         _______ _______ _______ _____ _____    ______ ____
ROOT
ATOM      1  O   UNL     1     -47.000  -3.859 -31.440  0.00  0.00    +0.000 OA
ATOM      2  C   UNL     1     -47.000  -4.573 -30.402  0.00  0.00    +0.000 A 
ATOM      3  C   UNL     1     -47.064  -3.946 -29.164  0.00  0.00    +0.000 A 
ATOM      4  C   UNL     1     -47.073  -4.719 -28.002  0.00  0.00    +0.000 A 
ATOM      5  O   UNL     1     -47.007  -6.046 -28.090  0.00  0.00    +0.000 OA
ATOM      6  C   UNL     1     -46.930  -6.704 -29.248  0.00  0.00    +0.000 A 
ATOM      7  C   UNL     1     -46.946  -5.980 -30.470  0.00  0.00    +0.000 A 
ATOM      8  C   UNL     1     -46.924  -6.681 -31.693  0.00  0.00    +0.000 A 
ATOM      9  C   UNL     1     -46.920  -8.076 -31.699  0.00  0.00    +0.000 A 
ATOM     10  C   UNL     1     -46.897  -8.793 -30.502  0.00  0.00    +0.000 A 
ATOM     11  C   UNL     1     -46.839  -8.119 -29.259  0.00  0.00    +0.000 A 
ATOM     12  C   UNL     1     -46.825  -8.952 -27.972  0.00  0.00    +0.000 C 
ATOM     13  C   UNL     1     -46.266 -10.364 -28.178  0.00  0.00    +0.000 C 
ATOM     14  C   UNL     1     -46.804 -10.975 -29.421  0.00  0.00    +0.000 C 
ATOM     15  O   UNL     1     -47.091 -12.199 -29.454  0.00  0.00    +0.000 OA
ATOM     16  O   UNL     1     -46.962 -10.190 -30.559  0.00  0.00    +0.000 OA
ENDROOT
BRANCH  12  17
ATOM     17  C   UNL     1     -46.077  -8.334 -26.822  0.00  0.00    +0.000 A 
ATOM     18  C   UNL     1     -46.698  -8.302 -25.568  0.00  0.00    +0.000 A 
ATOM     19  C   UNL     1     -46.025  -7.783 -24.460  0.00  0.00    +0.000 A 
ATOM     20  C   UNL     1     -44.727  -7.288 -24.598  0.00  0.00    +0.000 A 
ATOM     21  F   UNL     1     -44.083  -6.778 -23.519  0.00  0.00    +0.000 F 
ATOM     22  C   UNL     1     -44.093  -7.321 -25.846  0.00  0.00    +0.000 A 
ATOM     23  F   UNL     1     -42.829  -6.847 -25.977  0.00  0.00    +0.000 F 
ATOM     24  C   UNL     1     -44.759  -7.853 -26.957  0.00  0.00    +0.000 A 
ATOM     25  F   UNL     1     -44.126  -7.900 -28.156  0.00  0.00    +0.000 F 
ENDBRANCH  12  17
BRANCH   4  26
ATOM     26  C   UNL     1     -47.157  -4.074 -26.676  0.00  0.00    +0.000 A 
ATOM     27  C   UNL     1     -47.260  -2.680 -26.582  0.00  0.00    +0.000 A 
ATOM     28  C   UNL     1     -47.341  -2.055 -25.334  0.00  0.00    +0.000 A 
ATOM     29  C   UNL     1     -47.318  -2.822 -24.166  0.00  0.00    +0.000 A 
ATOM     30  C   UNL     1     -47.213  -4.212 -24.247  0.00  0.00    +0.000 A 
ATOM     31  C   UNL     1     -47.132  -4.836 -25.495  0.00  0.00    +0.000 A 
ENDBRANCH   4  26
BRANCH   8  32
ATOM     32  O   UNL     1     -46.928  -6.007 -32.912  0.00  0.00    +0.000 OA
ATOM     33  H   UNL     1     -46.245  -6.160 -33.534  0.00  0.00    +0.000 HD
ENDBRANCH   8  32
BRANCH   9  34
ATOM     34  O   UNL     1     -46.943  -8.759 -32.911  0.00  0.00    +0.000 OA
ATOM     35  H   UNL     1     -46.143  -9.058 -33.296  0.00  0.00    +0.000 HD
ENDBRANCH   9  34
TORSDOF 4
ENDMDL
MODEL 2
REMARK VINA RESULT:      -7.7      8.834     11.338
REMARK  Name = ZINC000096117524
REMARK  4 active torsions:
REMARK  status: ('A' for Active; 'I' for Inactive)
REMARK    1  A    between atoms: C_4  and  C_30
REMARK    2  A    between atoms: C_8  and  O_9
REMARK    3  A    between atoms: C_10  and  O_11
REMARK    4  A    between atoms: C_14  and  C_21
REMARK                            x       y       z     vdW  Elec       q    Type
REMARK                         _______ _______ _______ _____ _____    ______ ____
ROOT
ATOM      1  O   UNL     1     -45.626 -12.037 -24.150  0.00  0.00    +0.000 OA
ATOM      2  C   UNL     1     -45.622 -13.175 -23.609  0.00  0.00    +0.000 A 
ATOM      3  C   UNL     1     -45.885 -13.265 -22.248  0.00  0.00    +0.000 A 
ATOM      4  C   UNL     1     -45.894 -14.516 -21.630  0.00  0.00    +0.000 A 
ATOM      5  O   UNL     1     -45.636 -15.609 -22.347  0.00  0.00    +0.000 OA
ATOM      6  C   UNL     1     -45.363 -15.586 -23.652  0.00  0.00    +0.000 A 
ATOM      7  C   UNL     1     -45.367 -14.347 -24.349  0.00  0.00    +0.000 A 
ATOM      8  C   UNL     1     -45.137 -14.332 -25.740  0.00  0.00    +0.000 A 
ATOM      9  C   UNL     1     -44.939 -15.529 -26.429  0.00  0.00    +0.000 A 
ATOM     10  C   UNL     1     -44.927 -16.748 -25.749  0.00  0.00    +0.000 A 
ATOM     11  C   UNL     1     -45.076 -16.790 -24.342  0.00  0.00    +0.000 A 
ATOM     12  C   UNL     1     -45.065 -18.155 -23.644  0.00  0.00    +0.000 C 
ATOM     13  C   UNL     1     -44.299 -19.225 -24.430  0.00  0.00    +0.000 C 
ATOM     14  C   UNL     1     -44.632 -19.163 -25.877  0.00  0.00    +0.000 C 
ATOM     15  O   UNL     1     -44.742 -20.221 -26.548  0.00  0.00    +0.000 OA
ATOM     16  O   UNL     1     -44.792 -17.925 -26.492  0.00  0.00    +0.000 OA
ENDROOT
BRANCH  12  17
ATOM     17  C   UNL     1     -44.519 -18.148 -22.242  0.00  0.00    +0.000 A 
ATOM     18  C   UNL     1     -43.195 -17.737 -22.048  0.00  0.00    +0.000 A 
ATOM     19  C   UNL     1     -42.659 -17.667 -20.760  0.00  0.00    +0.000 A 
ATOM     20  C   UNL     1     -43.441 -18.009 -19.656  0.00  0.00    +0.000 A 
ATOM     21  F   UNL     1     -42.911 -17.946 -18.411  0.00  0.00    +0.000 F 
ATOM     22  C   UNL     1     -44.769 -18.414 -19.837  0.00  0.00    +0.000 A 
ATOM     23  F   UNL     1     -45.530 -18.740 -18.763  0.00  0.00    +0.000 F 
ATOM     24  C   UNL     1     -45.314 -18.474 -21.126  0.00  0.00    +0.000 A 
ATOM     25  F   UNL     1     -46.609 -18.846 -21.286  0.00  0.00    +0.000 F 
ENDBRANCH  12  17
BRANCH   4  26
ATOM     26  C   UNL     1     -46.187 -14.636 -20.187  0.00  0.00    +0.000 A 
ATOM     27  C   UNL     1     -45.155 -14.931 -19.286  0.00  0.00    +0.000 A 
ATOM     28  C   UNL     1     -45.418 -15.046 -17.918  0.00  0.00    +0.000 A 
ATOM     29  C   UNL     1     -46.718 -14.869 -17.438  0.00  0.00    +0.000 A 
ATOM     30  C   UNL     1     -47.755 -14.578 -18.328  0.00  0.00    +0.000 A 
ATOM     31  C   UNL     1     -47.492 -14.463 -19.695  0.00  0.00    +0.000 A 
ENDBRANCH   4  26
BRANCH   8  32
ATOM     32  O   UNL     1     -45.124 -13.138 -26.456  0.00  0.00    +0.000 OA
ATOM     33  H   UNL     1     -45.881 -12.586 -26.463  0.00  0.00    +0.000 HD
ENDBRANCH   8  32
BRANCH   9  34
ATOM     34  O   UNL     1     -44.757 -15.508 -27.808  0.00  0.00    +0.000 OA
ATOM     35  H   UNL     1     -43.997 -15.905 -28.186  0.00  0.00    +0.000 HD
ENDBRANCH   9  34
TORSDOF 4
ENDMDL
MODEL 3
REMARK VINA RESULT:      -7.4      5.369      8.659
REMARK  Name = ZINC000096117524
REMARK  4 active torsions:
REMARK  status: ('A' for Active; 'I' for Inactive)
REMARK    1  A    between atoms: C_4  and  C_30
REMARK    2  A    between atoms: C_8  and  O_9
REMARK    3  A    between atoms: C_10  and  O_11
REMARK    4  A    between atoms: C_14  and  C_21
REMARK                            x       y       z     vdW  Elec       q    Type
REMARK                         _______ _______ _______ _____ _____    ______ ____
ROOT
ATOM      1  O   UNL     1     -43.445  -1.044 -32.382  0.00  0.00    +0.000 OA
ATOM      2  C   UNL     1     -43.445  -2.254 -32.734  0.00  0.00    +0.000 A 
ATOM      3  C   UNL     1     -42.521  -2.671 -33.683  0.00  0.00    +0.000 A 
ATOM      4  C   UNL     1     -42.498  -4.009 -34.082  0.00  0.00    +0.000 A 
ATOM      5  O   UNL     1     -43.372  -4.868 -33.559  0.00  0.00    +0.000 OA
ATOM      6  C   UNL     1     -44.291  -4.525 -32.655  0.00  0.00    +0.000 A 
ATOM      7  C   UNL     1     -44.349  -3.186 -32.185  0.00  0.00    +0.000 A 
ATOM      8  C   UNL     1     -45.282  -2.840 -31.186  0.00  0.00    +0.000 A 
ATOM      9  C   UNL     1     -46.119  -3.816 -30.644  0.00  0.00    +0.000 A 
ATOM     10  C   UNL     1     -46.072  -5.132 -31.107  0.00  0.00    +0.000 A 
ATOM     11  C   UNL     1     -45.201  -5.493 -32.163  0.00  0.00    +0.000 A 
ATOM     12  C   UNL     1     -45.181  -6.954 -32.629  0.00  0.00    +0.000 C 
ATOM     13  C   UNL     1     -46.492  -7.693 -32.344  0.00  0.00    +0.000 C 
ATOM     14  C   UNL     1     -46.993  -7.384 -30.979  0.00  0.00    +0.000 C 
ATOM     15  O   UNL     1     -47.538  -8.280 -30.285  0.00  0.00    +0.000 OA
ATOM     16  O   UNL     1     -46.882  -6.088 -30.485  0.00  0.00    +0.000 OA
ENDROOT
BRANCH  12  17
ATOM     17  C   UNL     1     -44.858  -7.153 -34.085  0.00  0.00    +0.000 A 
ATOM     18  C   UNL     1     -43.711  -7.883 -34.416  0.00  0.00    +0.000 A 
ATOM     19  C   UNL     1     -43.396  -8.134 -35.754  0.00  0.00    +0.000 A 
ATOM     20  C   UNL     1     -44.224  -7.656 -36.770  0.00  0.00    +0.000 A 
ATOM     21  F   UNL     1     -43.907  -7.898 -38.066  0.00  0.00    +0.000 F 
ATOM     22  C   UNL     1     -45.378  -6.931 -36.450  0.00  0.00    +0.000 A 
ATOM     23  F   UNL     1     -46.186  -6.472 -37.439  0.00  0.00    +0.000 F 
ATOM     24  C   UNL     1     -45.705  -6.687 -35.110  0.00  0.00    +0.000 A 
ATOM     25  F   UNL     1     -46.838  -6.002 -34.813  0.00  0.00    +0.000 F 
ENDBRANCH  12  17
BRANCH   4  26
ATOM     26  C   UNL     1     -41.513  -4.476 -35.078  0.00  0.00    +0.000 A 
ATOM     27  C   UNL     1     -41.938  -4.846 -36.361  0.00  0.00    +0.000 A 
ATOM     28  C   UNL     1     -41.016  -5.289 -37.314  0.00  0.00    +0.000 A 
ATOM     29  C   UNL     1     -39.659  -5.369 -36.991  0.00  0.00    +0.000 A 
ATOM     30  C   UNL     1     -39.225  -5.005 -35.714  0.00  0.00    +0.000 A 
ATOM     31  C   UNL     1     -40.147  -4.562 -34.761  0.00  0.00    +0.000 A 
ENDBRANCH   4  26
BRANCH   8  32
ATOM     32  O   UNL     1     -45.376  -1.537 -30.706  0.00  0.00    +0.000 OA
ATOM     33  H   UNL     1     -45.327  -1.372 -29.784  0.00  0.00    +0.000 HD
ENDBRANCH   8  32
BRANCH   9  34
ATOM     34  O   UNL     1     -47.006  -3.475 -29.628  0.00  0.00    +0.000 OA
ATOM     35  H   UNL     1     -46.781  -3.640 -28.734  0.00  0.00    +0.000 HD
ENDBRANCH   9  34
TORSDOF 4
ENDMDL
