MODEL 1
REMARK VINA RESULT:      -6.8      0.000      0.000
REMARK  Name = ZINC000018200763
REMARK  2 active torsions:
REMARK  status: ('A' for Active; 'I' for Inactive)
REMARK    1  A    between atoms: C_14  and  O_15
REMARK    2  A    between atoms: C_17  and  C_21
REMARK                            x       y       z     vdW  Elec       q    Type
REMARK                         _______ _______ _______ _____ _____    ______ ____
ROOT
ATOM      1  C   UNL     1     -44.199 -10.088 -31.430  0.00  0.00    +0.000 C 
ATOM      2  C   UNL     1     -45.686 -10.310 -31.667  0.00  0.00    +0.000 C 
ATOM      3  C   UNL     1     -45.893 -11.755 -32.065  0.00  0.00    +0.000 C 
ATOM      4  C   UNL     1     -46.174  -9.415 -32.808  0.00  0.00    +0.000 C 
ATOM      5  C   UNL     1     -46.392  -7.990 -32.385  0.00  0.00    +0.000 C 
ATOM      6  O   UNL     1     -46.551  -7.115 -33.278  0.00  0.00    +0.000 OA
ATOM      7  C   UNL     1     -46.444  -7.608 -30.953  0.00  0.00    +0.000 C 
ATOM      8  C   UNL     1     -46.469  -8.585 -30.000  0.00  0.00    +0.000 C 
ATOM      9  C   UNL     1     -46.475 -10.038 -30.385  0.00  0.00    +0.000 C 
ATOM     10  N   UNL     1     -46.605  -8.264 -28.603  0.00  0.00    +0.000 N 
ATOM     11  C   UNL     1     -46.740  -6.900 -28.228  0.00  0.00    +0.000 A 
ATOM     12  N   UNL     1     -46.946  -6.429 -26.985  0.00  0.00    +0.000 N 
ATOM     13  N   UNL     1     -47.036  -5.105 -27.081  0.00  0.00    +0.000 NA
ATOM     14  C   UNL     1     -46.888  -4.765 -28.381  0.00  0.00    +0.000 A 
ATOM     15  C   UNL     1     -46.702  -5.897 -29.136  0.00  0.00    +0.000 A 
ATOM     16  C   UNL     1     -46.437  -6.117 -30.593  0.00  0.00    +0.000 C 
ATOM     17  H   UNL     1     -46.605  -8.975 -27.923  0.00  0.00    +0.000 HD
ATOM     18  H   UNL     1     -47.016  -6.963 -26.161  0.00  0.00    +0.000 HD
ENDROOT
BRANCH  16  19
ATOM     19  C   UNL     1     -45.143  -5.458 -30.999  0.00  0.00    +0.000 A 
ATOM     20  C   UNL     1     -43.924  -5.944 -30.504  0.00  0.00    +0.000 A 
ATOM     21  C   UNL     1     -42.727  -5.329 -30.872  0.00  0.00    +0.000 A 
ATOM     22  N   UNL     1     -42.738  -4.257 -31.708  0.00  0.00    +0.000 NA
ATOM     23  C   UNL     1     -43.898  -3.753 -32.207  0.00  0.00    +0.000 A 
ATOM     24  C   UNL     1     -43.866  -2.648 -33.061  0.00  0.00    +0.000 A 
ATOM     25  C   UNL     1     -45.056  -2.124 -33.575  0.00  0.00    +0.000 A 
ATOM     26  C   UNL     1     -46.282  -2.703 -33.235  0.00  0.00    +0.000 A 
ATOM     27  C   UNL     1     -46.323  -3.809 -32.382  0.00  0.00    +0.000 A 
ATOM     28  C   UNL     1     -45.136  -4.345 -31.860  0.00  0.00    +0.000 A 
ENDBRANCH  16  19
BRANCH  14  29
ATOM     29  O   UNL     1     -46.913  -3.461 -28.854  0.00  0.00    +0.000 OA
ATOM     30  H   UNL     1     -46.509  -3.251 -29.672  0.00  0.00    +0.000 HD
ENDBRANCH  14  29
TORSDOF 2
ENDMDL
MODEL 2
REMARK VINA RESULT:      -6.7      2.354      6.092
REMARK  Name = ZINC000018200763
REMARK  2 active torsions:
REMARK  status: ('A' for Active; 'I' for Inactive)
REMARK    1  A    between atoms: C_14  and  O_15
REMARK    2  A    between atoms: C_17  and  C_21
REMARK                            x       y       z     vdW  Elec       q    Type
REMARK                         _______ _______ _______ _____ _____    ______ ____
ROOT
ATOM      1  C   UNL     1     -42.862  -2.416 -32.533  0.00  0.00    +0.000 C 
ATOM      2  C   UNL     1     -44.231  -1.793 -32.758  0.00  0.00    +0.000 C 
ATOM      3  C   UNL     1     -44.039  -0.457 -33.443  0.00  0.00    +0.000 C 
ATOM      4  C   UNL     1     -44.927  -1.558 -31.417  0.00  0.00    +0.000 C 
ATOM      5  C   UNL     1     -45.525  -2.808 -30.836  0.00  0.00    +0.000 C 
ATOM      6  O   UNL     1     -45.902  -2.793 -29.634  0.00  0.00    +0.000 OA
ATOM      7  C   UNL     1     -45.694  -4.034 -31.654  0.00  0.00    +0.000 C 
ATOM      8  C   UNL     1     -45.468  -3.979 -32.998  0.00  0.00    +0.000 C 
ATOM      9  C   UNL     1     -45.080  -2.687 -33.663  0.00  0.00    +0.000 C 
ATOM     10  N   UNL     1     -45.702  -5.121 -33.843  0.00  0.00    +0.000 N 
ATOM     11  C   UNL     1     -46.202  -6.313 -33.254  0.00  0.00    +0.000 A 
ATOM     12  N   UNL     1     -46.542  -7.444 -33.900  0.00  0.00    +0.000 N 
ATOM     13  N   UNL     1     -46.982  -8.299 -32.981  0.00  0.00    +0.000 NA
ATOM     14  C   UNL     1     -46.915  -7.693 -31.775  0.00  0.00    +0.000 A 
ATOM     15  C   UNL     1     -46.424  -6.420 -31.923  0.00  0.00    +0.000 A 
ATOM     16  C   UNL     1     -46.092  -5.335 -30.945  0.00  0.00    +0.000 C 
ATOM     17  H   UNL     1     -45.520  -5.076 -34.810  0.00  0.00    +0.000 HD
ATOM     18  H   UNL     1     -46.477  -7.606 -34.869  0.00  0.00    +0.000 HD
ENDROOT
BRANCH  16  19
ATOM     19  C   UNL     1     -45.017  -5.795 -29.993  0.00  0.00    +0.000 A 
ATOM     20  C   UNL     1     -43.710  -5.996 -30.458  0.00  0.00    +0.000 A 
ATOM     21  C   UNL     1     -42.717  -6.430 -29.578  0.00  0.00    +0.000 A 
ATOM     22  N   UNL     1     -43.014  -6.662 -28.272  0.00  0.00    +0.000 NA
ATOM     23  C   UNL     1     -44.269  -6.482 -27.784  0.00  0.00    +0.000 A 
ATOM     24  C   UNL     1     -44.534  -6.734 -26.434  0.00  0.00    +0.000 A 
ATOM     25  C   UNL     1     -45.824  -6.554 -25.928  0.00  0.00    +0.000 A 
ATOM     26  C   UNL     1     -46.854  -6.122 -26.767  0.00  0.00    +0.000 A 
ATOM     27  C   UNL     1     -46.598  -5.867 -28.117  0.00  0.00    +0.000 A 
ATOM     28  C   UNL     1     -45.308  -6.044 -28.639  0.00  0.00    +0.000 A 
ENDBRANCH  16  19
BRANCH  14  29
ATOM     29  O   UNL     1     -47.284  -8.294 -30.579  0.00  0.00    +0.000 OA
ATOM     30  H   UNL     1     -47.075  -9.193 -30.422  0.00  0.00    +0.000 HD
ENDBRANCH  14  29
TORSDOF 2
ENDMDL
MODEL 3
REMARK VINA RESULT:      -6.6     11.219     14.135
REMARK  Name = ZINC000018200763
REMARK  2 active torsions:
REMARK  status: ('A' for Active; 'I' for Inactive)
REMARK    1  A    between atoms: C_14  and  O_15
REMARK    2  A    between atoms: C_17  and  C_21
REMARK                            x       y       z     vdW  Elec       q    Type
REMARK                         _______ _______ _______ _____ _____    ______ ____
ROOT
ATOM      1  C   UNL     1     -43.522 -14.228 -25.939  0.00  0.00    +0.000 C 
ATOM      2  C   UNL     1     -44.763 -14.951 -26.439  0.00  0.00    +0.000 C 
ATOM      3  C   UNL     1     -45.083 -14.442 -27.827  0.00  0.00    +0.000 C 
ATOM      4  C   UNL     1     -45.950 -14.649 -25.523  0.00  0.00    +0.000 C 
ATOM      5  C   UNL     1     -45.927 -15.443 -24.248  0.00  0.00    +0.000 C 
ATOM      6  O   UNL     1     -46.705 -15.107 -23.315  0.00  0.00    +0.000 OA
ATOM      7  C   UNL     1     -45.032 -16.614 -24.084  0.00  0.00    +0.000 C 
ATOM      8  C   UNL     1     -44.344 -17.087 -25.163  0.00  0.00    +0.000 C 
ATOM      9  C   UNL     1     -44.506 -16.457 -26.519  0.00  0.00    +0.000 C 
ATOM     10  N   UNL     1     -43.530 -18.272 -25.071  0.00  0.00    +0.000 N 
ATOM     11  C   UNL     1     -43.473 -18.964 -23.831  0.00  0.00    +0.000 A 
ATOM     12  N   UNL     1     -42.824 -20.117 -23.588  0.00  0.00    +0.000 N 
ATOM     13  N   UNL     1     -43.047 -20.426 -22.313  0.00  0.00    +0.000 NA
ATOM     14  C   UNL     1     -43.832 -19.467 -21.777  0.00  0.00    +0.000 A 
ATOM     15  C   UNL     1     -44.123 -18.522 -22.730  0.00  0.00    +0.000 A 
ATOM     16  C   UNL     1     -44.889 -17.235 -22.688  0.00  0.00    +0.000 C 
ATOM     17  H   UNL     1     -43.024 -18.595 -25.851  0.00  0.00    +0.000 HD
ATOM     18  H   UNL     1     -42.287 -20.633 -24.231  0.00  0.00    +0.000 HD
ENDROOT
BRANCH  16  19
ATOM     19  C   UNL     1     -44.251 -16.272 -21.720  0.00  0.00    +0.000 A 
ATOM     20  C   UNL     1     -43.018 -15.682 -22.030  0.00  0.00    +0.000 A 
ATOM     21  C   UNL     1     -42.423 -14.797 -21.128  0.00  0.00    +0.000 A 
ATOM     22  N   UNL     1     -43.034 -14.509 -19.949  0.00  0.00    +0.000 NA
ATOM     23  C   UNL     1     -44.228 -15.063 -19.610  0.00  0.00    +0.000 A 
ATOM     24  C   UNL     1     -44.821 -14.743 -18.386  0.00  0.00    +0.000 A 
ATOM     25  C   UNL     1     -46.047 -15.312 -18.031  0.00  0.00    +0.000 A 
ATOM     26  C   UNL     1     -46.684 -16.205 -18.897  0.00  0.00    +0.000 A 
ATOM     27  C   UNL     1     -46.097 -16.531 -20.123  0.00  0.00    +0.000 A 
ATOM     28  C   UNL     1     -44.867 -15.966 -20.492  0.00  0.00    +0.000 A 
ENDBRANCH  16  19
BRANCH  14  29
ATOM     29  O   UNL     1     -44.259 -19.456 -20.456  0.00  0.00    +0.000 OA
ATOM     30  H   UNL     1     -44.661 -18.688 -20.100  0.00  0.00    +0.000 HD
ENDBRANCH  14  29
TORSDOF 2
ENDMDL
