MODEL 1
REMARK VINA RESULT:      -7.1      0.000      0.000
REMARK  Name = ZINC000019138008
REMARK  5 active torsions:
REMARK  status: ('A' for Active; 'I' for Inactive)
REMARK    1  A    between atoms: C_1  and  C_23
REMARK    2  A    between atoms: C_2  and  O_3
REMARK    3  A    between atoms: C_7  and  C_9
REMARK    4  A    between atoms: C_12  and  C_15
REMARK    5  A    between atoms: C_23  and  C_29
REMARK                            x       y       z     vdW  Elec       q    Type
REMARK                         _______ _______ _______ _____ _____    ______ ____
ROOT
ATOM      1  C   UNL     1     -45.503 -17.094 -25.121  0.00  0.00    +0.000 C 
ATOM      2  C   UNL     1     -44.849 -16.943 -26.272  0.00  0.00    +0.000 C 
ATOM      3  C   UNL     1     -44.878 -15.552 -26.645  0.00  0.00    +0.000 C 
ATOM      4  O   UNL     1     -44.372 -15.063 -27.689  0.00  0.00    +0.000 OA
ATOM      5  N   UNL     1     -45.581 -14.808 -25.663  0.00  0.00    +0.000 N 
ATOM      6  C   UNL     1     -46.002 -15.749 -24.622  0.00  0.00    +0.000 C 
ATOM      7  C   UNL     1     -45.974 -13.432 -25.760  0.00  0.00    +0.000 A 
ATOM      8  N   UNL     1     -46.805 -12.955 -26.708  0.00  0.00    +0.000 NA
ATOM      9  N   UNL     1     -47.024 -11.645 -26.598  0.00  0.00    +0.000 NA
ATOM     10  C   UNL     1     -46.375 -11.055 -25.565  0.00  0.00    +0.000 A 
ATOM     11  S   UNL     1     -45.472 -12.207 -24.727  0.00  0.00    +0.000 S 
ENDROOT
BRANCH   6  12
ATOM     12  C   UNL     1     -45.377 -15.394 -23.302  0.00  0.00    +0.000 A 
ATOM     13  C   UNL     1     -46.204 -15.085 -22.217  0.00  0.00    +0.000 A 
ATOM     14  C   UNL     1     -45.647 -14.757 -20.979  0.00  0.00    +0.000 A 
ATOM     15  C   UNL     1     -44.254 -14.735 -20.815  0.00  0.00    +0.000 A 
ATOM     16  C   UNL     1     -43.426 -15.044 -21.900  0.00  0.00    +0.000 A 
ATOM     17  C   UNL     1     -43.983 -15.373 -23.138  0.00  0.00    +0.000 A 
BRANCH  15  18
ATOM     18  C   UNL     1     -43.630 -14.388 -19.499  0.00  0.00    +0.000 C 
ATOM     19  C   UNL     1     -43.622 -15.584 -18.567  0.00  0.00    +0.000 C 
ATOM     20  C   UNL     1     -44.347 -13.220 -18.846  0.00  0.00    +0.000 C 
ENDBRANCH  15  18
ENDBRANCH   6  12
BRANCH   2  21
ATOM     21  O   UNL     1     -44.250 -17.960 -27.007  0.00  0.00    +0.000 OA
ATOM     22  H   UNL     1     -43.631 -17.751 -27.678  0.00  0.00    +0.000 HD
ENDBRANCH   2  21
BRANCH   1  23
ATOM     23  C   UNL     1     -45.683 -18.387 -24.418  0.00  0.00    +0.000 C 
ATOM     24  O   UNL     1     -46.347 -19.302 -24.978  0.00  0.00    +0.000 OA
BRANCH  23  29
ATOM     25  C   UNL     1     -43.435 -19.339 -19.185  0.00  0.00    +0.000 C 
ATOM     26  C   UNL     1     -44.010 -19.096 -20.533  0.00  0.00    +0.000 A 
ATOM     27  C   UNL     1     -43.204 -19.219 -21.668  0.00  0.00    +0.000 A 
ATOM     28  C   UNL     1     -43.746 -18.991 -22.936  0.00  0.00    +0.000 A 
ATOM     29  C   UNL     1     -45.098 -18.646 -23.083  0.00  0.00    +0.000 A 
ATOM     30  C   UNL     1     -45.895 -18.513 -21.936  0.00  0.00    +0.000 A 
ATOM     31  C   UNL     1     -45.354 -18.740 -20.666  0.00  0.00    +0.000 A 
ENDBRANCH  23  29
ENDBRANCH   1  23
TORSDOF 5
ENDMDL
MODEL 2
REMARK VINA RESULT:      -6.5      4.312      6.905
REMARK  Name = ZINC000019138008
REMARK  5 active torsions:
REMARK  status: ('A' for Active; 'I' for Inactive)
REMARK    1  A    between atoms: C_1  and  C_23
REMARK    2  A    between atoms: C_2  and  O_3
REMARK    3  A    between atoms: C_7  and  C_9
REMARK    4  A    between atoms: C_12  and  C_15
REMARK    5  A    between atoms: C_23  and  C_29
REMARK                            x       y       z     vdW  Elec       q    Type
REMARK                         _______ _______ _______ _____ _____    ______ ____
ROOT
ATOM      1  C   UNL     1     -44.674 -18.762 -20.424  0.00  0.00    +0.000 C 
ATOM      2  C   UNL     1     -43.578 -18.708 -19.669  0.00  0.00    +0.000 C 
ATOM      3  C   UNL     1     -42.483 -19.298 -20.395  0.00  0.00    +0.000 C 
ATOM      4  O   UNL     1     -41.307 -19.429 -19.966  0.00  0.00    +0.000 OA
ATOM      5  N   UNL     1     -42.930 -19.728 -21.670  0.00  0.00    +0.000 N 
ATOM      6  C   UNL     1     -44.353 -19.390 -21.769  0.00  0.00    +0.000 C 
ATOM      7  C   UNL     1     -42.186 -20.514 -22.610  0.00  0.00    +0.000 A 
ATOM      8  N   UNL     1     -41.735 -21.759 -22.355  0.00  0.00    +0.000 NA
ATOM      9  N   UNL     1     -41.069 -22.292 -23.379  0.00  0.00    +0.000 NA
ATOM     10  C   UNL     1     -40.975 -21.487 -24.465  0.00  0.00    +0.000 A 
ATOM     11  S   UNL     1     -41.758 -20.024 -24.159  0.00  0.00    +0.000 S 
ENDROOT
BRANCH   6  12
ATOM     12  C   UNL     1     -44.590 -18.418 -22.892  0.00  0.00    +0.000 A 
ATOM     13  C   UNL     1     -45.612 -18.677 -23.811  0.00  0.00    +0.000 A 
ATOM     14  C   UNL     1     -45.856 -17.787 -24.860  0.00  0.00    +0.000 A 
ATOM     15  C   UNL     1     -45.076 -16.629 -24.999  0.00  0.00    +0.000 A 
ATOM     16  C   UNL     1     -44.053 -16.370 -24.080  0.00  0.00    +0.000 A 
ATOM     17  C   UNL     1     -43.810 -17.261 -23.031  0.00  0.00    +0.000 A 
BRANCH  15  18
ATOM     18  C   UNL     1     -45.316 -15.658 -26.113  0.00  0.00    +0.000 C 
ATOM     19  C   UNL     1     -44.045 -15.406 -26.901  0.00  0.00    +0.000 C 
ATOM     20  C   UNL     1     -45.872 -14.348 -25.585  0.00  0.00    +0.000 C 
ENDBRANCH  15  18
ENDBRANCH   6  12
BRANCH   2  21
ATOM     21  O   UNL     1     -43.503 -18.188 -18.382  0.00  0.00    +0.000 OA
ATOM     22  H   UNL     1     -44.273 -17.856 -17.965  0.00  0.00    +0.000 HD
ENDBRANCH   2  21
BRANCH   1  23
ATOM     23  C   UNL     1     -46.005 -18.249 -20.017  0.00  0.00    +0.000 C 
ATOM     24  O   UNL     1     -46.923 -19.072 -19.751  0.00  0.00    +0.000 OA
BRANCH  23  29
ATOM     25  C   UNL     1     -47.178 -12.617 -19.530  0.00  0.00    +0.000 C 
ATOM     26  C   UNL     1     -46.874 -14.064 -19.659  0.00  0.00    +0.000 A 
ATOM     27  C   UNL     1     -46.245 -14.546 -20.810  0.00  0.00    +0.000 A 
ATOM     28  C   UNL     1     -45.958 -15.909 -20.930  0.00  0.00    +0.000 A 
ATOM     29  C   UNL     1     -46.289 -16.801 -19.899  0.00  0.00    +0.000 A 
ATOM     30  C   UNL     1     -46.932 -16.309 -18.753  0.00  0.00    +0.000 A 
ATOM     31  C   UNL     1     -47.220 -14.946 -18.632  0.00  0.00    +0.000 A 
ENDBRANCH  23  29
ENDBRANCH   1  23
TORSDOF 5
ENDMDL
MODEL 3
REMARK VINA RESULT:      -6.5      3.580      5.854
REMARK  Name = ZINC000019138008
REMARK  5 active torsions:
REMARK  status: ('A' for Active; 'I' for Inactive)
REMARK    1  A    between atoms: C_1  and  C_23
REMARK    2  A    between atoms: C_2  and  O_3
REMARK    3  A    between atoms: C_7  and  C_9
REMARK    4  A    between atoms: C_12  and  C_15
REMARK    5  A    between atoms: C_23  and  C_29
REMARK                            x       y       z     vdW  Elec       q    Type
REMARK                         _______ _______ _______ _____ _____    ______ ____
ROOT
ATOM      1  C   UNL     1     -45.049 -18.028 -20.507  0.00  0.00    +0.000 C 
ATOM      2  C   UNL     1     -46.161 -18.208 -19.797  0.00  0.00    +0.000 C 
ATOM      3  C   UNL     1     -46.586 -16.938 -19.266  0.00  0.00    +0.000 C 
ATOM      4  O   UNL     1     -47.591 -16.751 -18.532  0.00  0.00    +0.000 OA
ATOM      5  N   UNL     1     -45.688 -15.922 -19.682  0.00  0.00    +0.000 N 
ATOM      6  C   UNL     1     -44.666 -16.558 -20.517  0.00  0.00    +0.000 C 
ATOM      7  C   UNL     1     -45.671 -14.564 -19.220  0.00  0.00    +0.000 A 
ATOM      8  N   UNL     1     -45.465 -14.212 -17.935  0.00  0.00    +0.000 NA
ATOM      9  N   UNL     1     -45.493 -12.893 -17.745  0.00  0.00    +0.000 NA
ATOM     10  C   UNL     1     -45.720 -12.171 -18.869  0.00  0.00    +0.000 A 
ATOM     11  S   UNL     1     -45.900 -13.209 -20.186  0.00  0.00    +0.000 S 
ENDROOT
BRANCH   6  12
ATOM     12  C   UNL     1     -44.697 -15.999 -21.912  0.00  0.00    +0.000 A 
ATOM     13  C   UNL     1     -43.501 -15.587 -22.507  0.00  0.00    +0.000 A 
ATOM     14  C   UNL     1     -43.503 -15.068 -23.805  0.00  0.00    +0.000 A 
ATOM     15  C   UNL     1     -44.706 -14.957 -24.518  0.00  0.00    +0.000 A 
ATOM     16  C   UNL     1     -45.903 -15.368 -23.923  0.00  0.00    +0.000 A 
ATOM     17  C   UNL     1     -45.900 -15.887 -22.626  0.00  0.00    +0.000 A 
BRANCH  15  18
ATOM     18  C   UNL     1     -44.737 -14.406 -25.910  0.00  0.00    +0.000 C 
ATOM     19  C   UNL     1     -45.973 -13.556 -26.133  0.00  0.00    +0.000 C 
ATOM     20  C   UNL     1     -44.676 -15.519 -26.939  0.00  0.00    +0.000 C 
ENDBRANCH  15  18
ENDBRANCH   6  12
BRANCH   2  21
ATOM     21  O   UNL     1     -46.802 -19.423 -19.584  0.00  0.00    +0.000 OA
ATOM     22  H   UNL     1     -46.623 -20.152 -20.145  0.00  0.00    +0.000 HD
ENDBRANCH   2  21
BRANCH   1  23
ATOM     23  C   UNL     1     -44.314 -19.107 -21.212  0.00  0.00    +0.000 C 
ATOM     24  O   UNL     1     -43.771 -20.021 -20.534  0.00  0.00    +0.000 OA
BRANCH  23  29
ATOM     25  C   UNL     1     -43.846 -19.241 -26.965  0.00  0.00    +0.000 C 
ATOM     26  C   UNL     1     -43.971 -19.207 -25.486  0.00  0.00    +0.000 A 
ATOM     27  C   UNL     1     -45.235 -19.157 -24.892  0.00  0.00    +0.000 A 
ATOM     28  C   UNL     1     -45.351 -19.126 -23.499  0.00  0.00    +0.000 A 
ATOM     29  C   UNL     1     -44.208 -19.153 -22.687  0.00  0.00    +0.000 A 
ATOM     30  C   UNL     1     -42.943 -19.190 -23.294  0.00  0.00    +0.000 A 
ATOM     31  C   UNL     1     -42.825 -19.220 -24.687  0.00  0.00    +0.000 A 
ENDBRANCH  23  29
ENDBRANCH   1  23
TORSDOF 5
ENDMDL
