MODEL 1
REMARK VINA RESULT:      -6.5      0.000      0.000
REMARK  Name = ZINC000005035803 ZINC05035803 PubChem-92248579
REMARK  6 active torsions:
REMARK  status: ('A' for Active; 'I' for Inactive)
REMARK    1  A    between atoms: C_5  and  C_8
REMARK    2  A    between atoms: C_8  and  N_22
REMARK    3  A    between atoms: C_9  and  C_10
REMARK    4  A    between atoms: C_13  and  C_14
REMARK    5  A    between atoms: C_17  and  O_27
REMARK    6  A    between atoms: C_18  and  O_26
REMARK                            x       y       z     vdW  Elec       q    Type
REMARK                         _______ _______ _______ _____ _____    ______ ____
ROOT
ATOM      1  C   UNL     1     -45.593 -16.154 -24.829  0.00  0.00    +0.000 C 
ATOM      2  C   UNL     1     -45.785 -17.671 -24.911  0.00  0.00    +0.000 C 
ATOM      3  C   UNL     1     -44.923 -18.040 -26.050  0.00  0.00    +0.000 C 
ATOM      4  C   UNL     1     -44.564 -15.770 -25.905  0.00  0.00    +0.000 C 
ATOM      5  O   UNL     1     -44.803 -19.213 -26.488  0.00  0.00    +0.000 OA
ATOM      6  O   UNL     1     -44.260 -16.967 -26.600  0.00  0.00    +0.000 OA
ENDROOT
BRANCH   4   7
ATOM      7  C   UNL     1     -45.123 -14.745 -26.840  0.00  0.00    +0.000 A 
ATOM      8  C   UNL     1     -44.803 -14.758 -28.203  0.00  0.00    +0.000 A 
ATOM      9  C   UNL     1     -45.342 -13.793 -29.058  0.00  0.00    +0.000 A 
ATOM     10  C   UNL     1     -46.209 -12.806 -28.561  0.00  0.00    +0.000 A 
ATOM     11  C   UNL     1     -46.535 -12.794 -27.196  0.00  0.00    +0.000 A 
ATOM     12  C   UNL     1     -45.988 -13.768 -26.343  0.00  0.00    +0.000 A 
BRANCH  11  14
ATOM     13  C   UNL     1     -46.948 -10.538 -26.263  0.00  0.00    +0.000 C 
ATOM     14  O   UNL     1     -47.403 -11.808 -26.711  0.00  0.00    +0.000 OA
ENDBRANCH  11  14
BRANCH  10  16
ATOM     15  C   UNL     1     -45.991 -10.764 -29.945  0.00  0.00    +0.000 C 
ATOM     16  O   UNL     1     -46.758 -11.833 -29.404  0.00  0.00    +0.000 OA
ENDBRANCH  10  16
ENDBRANCH   4   7
BRANCH   1  17
ATOM     17  C   UNL     1     -45.108 -15.750 -23.476  0.00  0.00    +0.000 C 
ATOM     18  N   UNL     1     -46.030 -15.607 -22.394  0.00  0.00    +0.000 NA
ATOM     19  O   UNL     1     -43.878 -15.544 -23.299  0.00  0.00    +0.000 OA
BRANCH  18  20
ATOM     20  C   UNL     1     -45.595 -15.289 -21.043  0.00  0.00    +0.000 C 
BRANCH  20  25
ATOM     21  C   UNL     1     -44.229 -20.105 -18.169  0.00  0.00    +0.000 C 
ATOM     22  C   UNL     1     -44.576 -18.870 -18.920  0.00  0.00    +0.000 A 
ATOM     23  C   UNL     1     -45.763 -18.812 -19.660  0.00  0.00    +0.000 A 
ATOM     24  C   UNL     1     -46.092 -17.648 -20.362  0.00  0.00    +0.000 A 
ATOM     25  C   UNL     1     -45.234 -16.542 -20.326  0.00  0.00    +0.000 A 
ATOM     26  C   UNL     1     -44.052 -16.599 -19.580  0.00  0.00    +0.000 A 
ATOM     27  C   UNL     1     -43.722 -17.764 -18.881  0.00  0.00    +0.000 A 
ENDBRANCH  20  25
ENDBRANCH  18  20
ENDBRANCH   1  17
TORSDOF 6
ENDMDL
MODEL 2
REMARK VINA RESULT:      -6.4      8.611     13.039
REMARK  Name = ZINC000005035803 ZINC05035803 PubChem-92248579
REMARK  6 active torsions:
REMARK  status: ('A' for Active; 'I' for Inactive)
REMARK    1  A    between atoms: C_5  and  C_8
REMARK    2  A    between atoms: C_8  and  N_22
REMARK    3  A    between atoms: C_9  and  C_10
REMARK    4  A    between atoms: C_13  and  C_14
REMARK    5  A    between atoms: C_17  and  O_27
REMARK    6  A    between atoms: C_18  and  O_26
REMARK                            x       y       z     vdW  Elec       q    Type
REMARK                         _______ _______ _______ _____ _____    ______ ____
ROOT
ATOM      1  C   UNL     1     -45.457  -5.178 -30.586  0.00  0.00    +0.000 C 
ATOM      2  C   UNL     1     -46.061  -5.325 -29.187  0.00  0.00    +0.000 C 
ATOM      3  C   UNL     1     -46.851  -4.088 -29.049  0.00  0.00    +0.000 C 
ATOM      4  C   UNL     1     -46.012  -3.873 -31.182  0.00  0.00    +0.000 C 
ATOM      5  O   UNL     1     -47.504  -3.783 -28.017  0.00  0.00    +0.000 OA
ATOM      6  O   UNL     1     -46.803  -3.285 -30.164  0.00  0.00    +0.000 OA
ENDROOT
BRANCH   4   7
ATOM      7  C   UNL     1     -44.904  -2.955 -31.586  0.00  0.00    +0.000 A 
ATOM      8  C   UNL     1     -45.089  -1.567 -31.620  0.00  0.00    +0.000 A 
ATOM      9  C   UNL     1     -44.037  -0.729 -31.996  0.00  0.00    +0.000 A 
ATOM     10  C   UNL     1     -42.786  -1.267 -32.339  0.00  0.00    +0.000 A 
ATOM     11  C   UNL     1     -42.595  -2.657 -32.302  0.00  0.00    +0.000 A 
ATOM     12  C   UNL     1     -43.659  -3.493 -31.923  0.00  0.00    +0.000 A 
BRANCH  11  14
ATOM     13  C   UNL     1     -41.115  -4.577 -32.805  0.00  0.00    +0.000 C 
ATOM     14  O   UNL     1     -41.344  -3.184 -32.642  0.00  0.00    +0.000 OA
ENDBRANCH  11  14
BRANCH  10  16
ATOM     15  C   UNL     1     -40.865   0.192 -31.775  0.00  0.00    +0.000 C 
ATOM     16  O   UNL     1     -41.721  -0.441 -32.718  0.00  0.00    +0.000 OA
ENDBRANCH  10  16
ENDBRANCH   4   7
BRANCH   1  17
ATOM     17  C   UNL     1     -45.821  -6.341 -31.449  0.00  0.00    +0.000 C 
ATOM     18  N   UNL     1     -46.886  -7.214 -31.069  0.00  0.00    +0.000 NA
ATOM     19  O   UNL     1     -45.182  -6.540 -32.516  0.00  0.00    +0.000 OA
BRANCH  18  20
ATOM     20  C   UNL     1     -47.324  -8.314 -31.913  0.00  0.00    +0.000 C 
BRANCH  20  25
ATOM     21  C   UNL     1     -45.470 -13.349 -29.784  0.00  0.00    +0.000 C 
ATOM     22  C   UNL     1     -45.936 -12.047 -30.329  0.00  0.00    +0.000 A 
ATOM     23  C   UNL     1     -45.522 -11.633 -31.600  0.00  0.00    +0.000 A 
ATOM     24  C   UNL     1     -45.966 -10.410 -32.115  0.00  0.00    +0.000 A 
ATOM     25  C   UNL     1     -46.822  -9.600 -31.357  0.00  0.00    +0.000 A 
ATOM     26  C   UNL     1     -47.239 -10.020 -30.089  0.00  0.00    +0.000 A 
ATOM     27  C   UNL     1     -46.794 -11.241 -29.575  0.00  0.00    +0.000 A 
ENDBRANCH  20  25
ENDBRANCH  18  20
ENDBRANCH   1  17
TORSDOF 6
ENDMDL
MODEL 3
REMARK VINA RESULT:      -6.4      5.923     12.945
REMARK  Name = ZINC000005035803 ZINC05035803 PubChem-92248579
REMARK  6 active torsions:
REMARK  status: ('A' for Active; 'I' for Inactive)
REMARK    1  A    between atoms: C_5  and  C_8
REMARK    2  A    between atoms: C_8  and  N_22
REMARK    3  A    between atoms: C_9  and  C_10
REMARK    4  A    between atoms: C_13  and  C_14
REMARK    5  A    between atoms: C_17  and  O_27
REMARK    6  A    between atoms: C_18  and  O_26
REMARK                            x       y       z     vdW  Elec       q    Type
REMARK                         _______ _______ _______ _____ _____    ______ ____
ROOT
ATOM      1  C   UNL     1     -45.909  -7.952 -30.463  0.00  0.00    +0.000 C 
ATOM      2  C   UNL     1     -45.061  -8.133 -31.724  0.00  0.00    +0.000 C 
ATOM      3  C   UNL     1     -45.641  -9.348 -32.327  0.00  0.00    +0.000 C 
ATOM      4  C   UNL     1     -46.977  -9.059 -30.473  0.00  0.00    +0.000 C 
ATOM      5  O   UNL     1     -45.217  -9.878 -33.386  0.00  0.00    +0.000 OA
ATOM      6  O   UNL     1     -46.699  -9.858 -31.610  0.00  0.00    +0.000 OA
ENDROOT
BRANCH   4   7
ATOM      7  C   UNL     1     -46.910  -9.879 -29.224  0.00  0.00    +0.000 A 
ATOM      8  C   UNL     1     -47.002  -9.283 -27.961  0.00  0.00    +0.000 A 
ATOM      9  C   UNL     1     -46.941 -10.070 -26.809  0.00  0.00    +0.000 A 
ATOM     10  C   UNL     1     -46.791 -11.463 -26.905  0.00  0.00    +0.000 A 
ATOM     11  C   UNL     1     -46.703 -12.065 -28.171  0.00  0.00    +0.000 A 
ATOM     12  C   UNL     1     -46.764 -11.265 -29.325  0.00  0.00    +0.000 A 
BRANCH  11  14
ATOM     13  C   UNL     1     -45.315 -14.078 -28.560  0.00  0.00    +0.000 C 
ATOM     14  O   UNL     1     -46.556 -13.454 -28.257  0.00  0.00    +0.000 OA
ENDBRANCH  11  14
BRANCH  10  16
ATOM     15  C   UNL     1     -45.542 -12.420 -24.993  0.00  0.00    +0.000 C 
ATOM     16  O   UNL     1     -46.729 -12.267 -25.761  0.00  0.00    +0.000 OA
ENDBRANCH  10  16
ENDBRANCH   4   7
BRANCH   1  17
ATOM     17  C   UNL     1     -46.555  -6.606 -30.443  0.00  0.00    +0.000 C 
ATOM     18  N   UNL     1     -46.596  -5.811 -31.630  0.00  0.00    +0.000 NA
ATOM     19  O   UNL     1     -47.067  -6.183 -29.373  0.00  0.00    +0.000 OA
BRANCH  18  20
ATOM     20  C   UNL     1     -47.278  -4.527 -31.679  0.00  0.00    +0.000 C 
BRANCH  20  25
ATOM     21  C   UNL     1     -43.579  -0.309 -33.036  0.00  0.00    +0.000 C 
ATOM     22  C   UNL     1     -44.521  -1.403 -32.683  0.00  0.00    +0.000 A 
ATOM     23  C   UNL     1     -44.915  -1.584 -31.352  0.00  0.00    +0.000 A 
ATOM     24  C   UNL     1     -45.807  -2.609 -31.021  0.00  0.00    +0.000 A 
ATOM     25  C   UNL     1     -46.303  -3.456 -32.020  0.00  0.00    +0.000 A 
ATOM     26  C   UNL     1     -45.914  -3.269 -33.350  0.00  0.00    +0.000 A 
ATOM     27  C   UNL     1     -45.020  -2.245 -33.680  0.00  0.00    +0.000 A 
ENDBRANCH  20  25
ENDBRANCH  18  20
ENDBRANCH   1  17
TORSDOF 6
ENDMDL
