MODEL 1
REMARK VINA RESULT:      -6.7      0.000      0.000
REMARK  Name = ZINC000015693488 ZINC15693488 PubChem-26752795
REMARK  5 active torsions:
REMARK  status: ('A' for Active; 'I' for Inactive)
REMARK    1  A    between atoms: C_1  and  C_19
REMARK    2  A    between atoms: C_12  and  C_15
REMARK    3  A    between atoms: C_19  and  O_21
REMARK    4  A    between atoms: O_21  and  C_22
REMARK    5  A    between atoms: C_22  and  C_29
REMARK                            x       y       z     vdW  Elec       q    Type
REMARK                         _______ _______ _______ _____ _____    ______ ____
ROOT
ATOM      1  C   UNL     1     -45.750  -3.344 -32.211  0.00  0.00    +0.000 C 
ATOM      2  O   UNL     1     -45.930  -2.326 -31.489  0.00  0.00    +0.000 OA
ATOM      3  N   UNL     1     -44.436  -3.657 -32.723  0.00  0.00    +0.000 N 
ATOM      4  C   UNL     1     -44.228  -4.965 -33.357  0.00  0.00    +0.000 C 
ATOM      5  C   UNL     1     -42.855  -5.494 -33.082  0.00  0.00    +0.000 C 
ATOM      6  O   UNL     1     -42.644  -6.734 -33.096  0.00  0.00    +0.000 OA
ATOM      7  N   UNL     1     -41.771  -4.588 -32.877  0.00  0.00    +0.000 N 
ATOM      8  C   UNL     1     -42.017  -3.186 -32.759  0.00  0.00    +0.000 A 
ATOM      9  C   UNL     1     -43.340  -2.712 -32.682  0.00  0.00    +0.000 A 
ATOM     10  C   UNL     1     -43.560  -1.331 -32.565  0.00  0.00    +0.000 A 
ATOM     11  C   UNL     1     -42.483  -0.441 -32.518  0.00  0.00    +0.000 A 
ATOM     12  C   UNL     1     -41.168  -0.917 -32.601  0.00  0.00    +0.000 A 
ATOM     13  C   UNL     1     -40.942  -2.296 -32.705  0.00  0.00    +0.000 A 
ATOM     14  H   UNL     1     -40.850  -4.931 -32.817  0.00  0.00    +0.000 HD
ENDROOT
BRANCH  12  15
ATOM     15  C   UNL     1     -40.012   0.035 -32.493  0.00  0.00    +0.000 C 
ATOM     16  F   UNL     1     -40.134   1.015 -33.459  0.00  0.00    +0.000 F 
ATOM     17  F   UNL     1     -38.815  -0.636 -32.679  0.00  0.00    +0.000 F 
ATOM     18  F   UNL     1     -39.993   0.631 -31.244  0.00  0.00    +0.000 F 
ENDBRANCH  12  15
BRANCH   1  19
ATOM     19  C   UNL     1     -46.915  -4.247 -32.496  0.00  0.00    +0.000 C 
ATOM     20  C   UNL     1     -47.715  -3.707 -33.666  0.00  0.00    +0.000 C 
BRANCH  19  21
ATOM     21  O   UNL     1     -47.756  -4.349 -31.353  0.00  0.00    +0.000 OA
BRANCH  21  22
ATOM     22  C   UNL     1     -47.435  -5.144 -30.246  0.00  0.00    +0.000 C 
ATOM     23  O   UNL     1     -47.617  -4.697 -29.081  0.00  0.00    +0.000 OA
BRANCH  22  29
ATOM     24  C   UNL     1     -43.669  -8.583 -30.251  0.00  0.00    +0.000 C 
ATOM     25  C   UNL     1     -45.085  -8.168 -30.477  0.00  0.00    +0.000 A 
ATOM     26  C   UNL     1     -45.987  -9.129 -30.939  0.00  0.00    +0.000 A 
ATOM     27  C   UNL     1     -47.318  -8.793 -31.165  0.00  0.00    +0.000 A 
ATOM     28  C   UNL     1     -47.756  -7.491 -30.931  0.00  0.00    +0.000 A 
ATOM     29  C   UNL     1     -46.877  -6.501 -30.468  0.00  0.00    +0.000 A 
ATOM     30  C   UNL     1     -45.517  -6.846 -30.236  0.00  0.00    +0.000 A 
ATOM     31  C   UNL     1     -44.527  -5.839 -29.738  0.00  0.00    +0.000 C 
ENDBRANCH  22  29
ENDBRANCH  21  22
ENDBRANCH  19  21
ENDBRANCH   1  19
TORSDOF 5
ENDMDL
MODEL 2
REMARK VINA RESULT:      -6.5     11.780     14.801
REMARK  Name = ZINC000015693488 ZINC15693488 PubChem-26752795
REMARK  5 active torsions:
REMARK  status: ('A' for Active; 'I' for Inactive)
REMARK    1  A    between atoms: C_1  and  C_19
REMARK    2  A    between atoms: C_12  and  C_15
REMARK    3  A    between atoms: C_19  and  O_21
REMARK    4  A    between atoms: O_21  and  C_22
REMARK    5  A    between atoms: C_22  and  C_29
REMARK                            x       y       z     vdW  Elec       q    Type
REMARK                         _______ _______ _______ _____ _____    ______ ____
ROOT
ATOM      1  C   UNL     1     -43.257 -17.075 -26.117  0.00  0.00    +0.000 C 
ATOM      2  O   UNL     1     -43.148 -17.546 -27.282  0.00  0.00    +0.000 OA
ATOM      3  N   UNL     1     -44.088 -15.920 -25.867  0.00  0.00    +0.000 N 
ATOM      4  C   UNL     1     -44.370 -15.552 -24.475  0.00  0.00    +0.000 C 
ATOM      5  C   UNL     1     -45.751 -14.994 -24.325  0.00  0.00    +0.000 C 
ATOM      6  O   UNL     1     -46.348 -15.081 -23.222  0.00  0.00    +0.000 OA
ATOM      7  N   UNL     1     -46.360 -14.300 -25.414  0.00  0.00    +0.000 N 
ATOM      8  C   UNL     1     -45.735 -14.285 -26.697  0.00  0.00    +0.000 A 
ATOM      9  C   UNL     1     -44.603 -15.087 -26.935  0.00  0.00    +0.000 A 
ATOM     10  C   UNL     1     -44.004 -15.059 -28.203  0.00  0.00    +0.000 A 
ATOM     11  C   UNL     1     -44.527 -14.252 -29.218  0.00  0.00    +0.000 A 
ATOM     12  C   UNL     1     -45.651 -13.451 -28.976  0.00  0.00    +0.000 A 
ATOM     13  C   UNL     1     -46.260 -13.486 -27.716  0.00  0.00    +0.000 A 
ATOM     14  H   UNL     1     -47.215 -13.830 -25.279  0.00  0.00    +0.000 HD
ENDROOT
BRANCH  12  15
ATOM     15  C   UNL     1     -46.245 -12.629 -30.083  0.00  0.00    +0.000 C 
ATOM     16  F   UNL     1     -47.393 -12.009 -29.627  0.00  0.00    +0.000 F 
ATOM     17  F   UNL     1     -46.566 -13.433 -31.163  0.00  0.00    +0.000 F 
ATOM     18  F   UNL     1     -45.346 -11.664 -30.504  0.00  0.00    +0.000 F 
ENDBRANCH  12  15
BRANCH   1  19
ATOM     19  C   UNL     1     -42.542 -17.759 -24.989  0.00  0.00    +0.000 C 
ATOM     20  C   UNL     1     -41.042 -17.619 -25.165  0.00  0.00    +0.000 C 
BRANCH  19  21
ATOM     21  O   UNL     1     -42.887 -19.139 -24.945  0.00  0.00    +0.000 OA
BRANCH  21  22
ATOM     22  C   UNL     1     -44.037 -19.610 -24.300  0.00  0.00    +0.000 C 
ATOM     23  O   UNL     1     -44.866 -20.317 -24.935  0.00  0.00    +0.000 OA
BRANCH  22  29
ATOM     24  C   UNL     1     -42.794 -19.607 -19.353  0.00  0.00    +0.000 C 
ATOM     25  C   UNL     1     -43.684 -19.246 -20.497  0.00  0.00    +0.000 A 
ATOM     26  C   UNL     1     -44.838 -18.510 -20.224  0.00  0.00    +0.000 A 
ATOM     27  C   UNL     1     -45.700 -18.147 -21.255  0.00  0.00    +0.000 A 
ATOM     28  C   UNL     1     -45.412 -18.520 -22.567  0.00  0.00    +0.000 A 
ATOM     29  C   UNL     1     -44.262 -19.261 -22.874  0.00  0.00    +0.000 A 
ATOM     30  C   UNL     1     -43.381 -19.630 -21.821  0.00  0.00    +0.000 A 
ATOM     31  C   UNL     1     -42.132 -20.416 -22.081  0.00  0.00    +0.000 C 
ENDBRANCH  22  29
ENDBRANCH  21  22
ENDBRANCH  19  21
ENDBRANCH   1  19
TORSDOF 5
ENDMDL
MODEL 3
REMARK VINA RESULT:      -6.5      5.221      8.486
REMARK  Name = ZINC000015693488 ZINC15693488 PubChem-26752795
REMARK  5 active torsions:
REMARK  status: ('A' for Active; 'I' for Inactive)
REMARK    1  A    between atoms: C_1  and  C_19
REMARK    2  A    between atoms: C_12  and  C_15
REMARK    3  A    between atoms: C_19  and  O_21
REMARK    4  A    between atoms: O_21  and  C_22
REMARK    5  A    between atoms: C_22  and  C_29
REMARK                            x       y       z     vdW  Elec       q    Type
REMARK                         _______ _______ _______ _____ _____    ______ ____
ROOT
ATOM      1  C   UNL     1     -46.125  -7.098 -32.642  0.00  0.00    +0.000 C 
ATOM      2  O   UNL     1     -45.383  -8.045 -33.020  0.00  0.00    +0.000 OA
ATOM      3  N   UNL     1     -46.732  -7.119 -31.332  0.00  0.00    +0.000 N 
ATOM      4  C   UNL     1     -47.391  -5.900 -30.849  0.00  0.00    +0.000 C 
ATOM      5  C   UNL     1     -47.218  -5.733 -29.371  0.00  0.00    +0.000 C 
ATOM      6  O   UNL     1     -47.258  -4.585 -28.858  0.00  0.00    +0.000 OA
ATOM      7  N   UNL     1     -47.081  -6.883 -28.536  0.00  0.00    +0.000 N 
ATOM      8  C   UNL     1     -46.934  -8.180 -29.116  0.00  0.00    +0.000 A 
ATOM      9  C   UNL     1     -46.758  -8.309 -30.507  0.00  0.00    +0.000 A 
ATOM     10  C   UNL     1     -46.614  -9.592 -31.056  0.00  0.00    +0.000 A 
ATOM     11  C   UNL     1     -46.635 -10.723 -30.236  0.00  0.00    +0.000 A 
ATOM     12  C   UNL     1     -46.815 -10.591 -28.852  0.00  0.00    +0.000 A 
ATOM     13  C   UNL     1     -46.946  -9.311 -28.297  0.00  0.00    +0.000 A 
ATOM     14  H   UNL     1     -47.089  -6.782 -27.557  0.00  0.00    +0.000 HD
ENDROOT
BRANCH  12  15
ATOM     15  C   UNL     1     -46.780 -11.802 -27.966  0.00  0.00    +0.000 C 
ATOM     16  F   UNL     1     -47.312 -11.481 -26.732  0.00  0.00    +0.000 F 
ATOM     17  F   UNL     1     -45.478 -12.239 -27.797  0.00  0.00    +0.000 F 
ATOM     18  F   UNL     1     -47.521 -12.829 -28.525  0.00  0.00    +0.000 F 
ENDBRANCH  12  15
BRANCH   1  19
ATOM     19  C   UNL     1     -46.336  -5.930 -33.562  0.00  0.00    +0.000 C 
ATOM     20  C   UNL     1     -46.331  -6.399 -35.005  0.00  0.00    +0.000 C 
BRANCH  19  21
ATOM     21  O   UNL     1     -45.313  -4.959 -33.376  0.00  0.00    +0.000 OA
BRANCH  21  22
ATOM     22  C   UNL     1     -45.558  -3.582 -33.437  0.00  0.00    +0.000 C 
ATOM     23  O   UNL     1     -46.700  -3.164 -33.769  0.00  0.00    +0.000 OA
BRANCH  22  29
ATOM     24  C   UNL     1     -40.649  -2.251 -33.061  0.00  0.00    +0.000 C 
ATOM     25  C   UNL     1     -42.110  -1.977 -32.926  0.00  0.00    +0.000 A 
ATOM     26  C   UNL     1     -42.504  -0.723 -32.456  0.00  0.00    +0.000 A 
ATOM     27  C   UNL     1     -43.854  -0.417 -32.314  0.00  0.00    +0.000 A 
ATOM     28  C   UNL     1     -44.820  -1.367 -32.640  0.00  0.00    +0.000 A 
ATOM     29  C   UNL     1     -44.459  -2.637 -33.113  0.00  0.00    +0.000 A 
ATOM     30  C   UNL     1     -43.079  -2.947 -33.260  0.00  0.00    +0.000 A 
ATOM     31  C   UNL     1     -42.625  -4.283 -33.765  0.00  0.00    +0.000 C 
ENDBRANCH  22  29
ENDBRANCH  21  22
ENDBRANCH  19  21
ENDBRANCH   1  19
TORSDOF 5
ENDMDL
