MODEL 1
REMARK VINA RESULT:      -6.9      0.000      0.000
REMARK  Name = ZINC000002155366 PubChem-1804311
REMARK  7 active torsions:
REMARK  status: ('A' for Active; 'I' for Inactive)
REMARK    1  A    between atoms: C_2  and  C_3
REMARK    2  A    between atoms: C_3  and  C_4
REMARK    3  A    between atoms: C_4  and  CA_5
REMARK    4  A    between atoms: CA_5  and  C_6
REMARK    5  A    between atoms: CA_5  and  N_32
REMARK    6  A    between atoms: C_7  and  C_8
REMARK    7  A    between atoms: C_8  and  C_9
REMARK                            x       y       z     vdW  Elec       q    Type
REMARK                         _______ _______ _______ _____ _____    ______ ____
ROOT
ATOM      1  C   UNL     1     -43.098 -19.518 -24.464  0.00  0.00    +0.000 A 
ATOM      2  C   UNL     1     -43.995 -18.449 -24.630  0.00  0.00    +0.000 A 
ATOM      3  C   UNL     1     -43.836 -17.587 -25.726  0.00  0.00    +0.000 A 
ATOM      4  C   UNL     1     -42.764 -17.833 -26.637  0.00  0.00    +0.000 A 
ATOM      5  C   UNL     1     -42.571 -16.992 -27.755  0.00  0.00    +0.000 A 
ATOM      6  C   UNL     1     -43.456 -15.928 -27.932  0.00  0.00    +0.000 A 
ATOM      7  C   UNL     1     -44.480 -15.691 -27.047  0.00  0.00    +0.000 A 
ATOM      8  C   UNL     1     -44.708 -16.497 -25.938  0.00  0.00    +0.000 A 
ATOM      9  C   UNL     1     -45.141 -14.583 -27.514  0.00  0.00    +0.000 A 
ATOM     10  C   UNL     1     -44.483 -14.231 -28.679  0.00  0.00    +0.000 A 
ATOM     11  C   UNL     1     -44.876 -13.056 -29.518  0.00  0.00    +0.000 C 
ATOM     12  C   UNL     1     -46.319 -12.633 -29.203  0.00  0.00    +0.000 C 
ATOM     13  C   UNL     1     -46.564 -12.559 -27.688  0.00  0.00    +0.000 C 
ATOM     14  C   UNL     1     -46.397 -13.934 -27.025  0.00  0.00    +0.000 C 
ATOM     15  C   UNL     1     -41.466 -17.229 -28.727  0.00  0.00    +0.000 C 
ATOM     16  C   UNL     1     -42.068 -19.692 -25.405  0.00  0.00    +0.000 A 
ATOM     17  C   UNL     1     -45.104 -18.231 -23.644  0.00  0.00    +0.000 C 
ATOM     18  O   UNL     1     -43.467 -15.041 -28.905  0.00  0.00    +0.000 OA
ATOM     19  O   UNL     1     -41.943 -18.859 -26.433  0.00  0.00    +0.000 OA
ATOM     20  O   UNL     1     -41.249 -20.642 -25.284  0.00  0.00    +0.000 OA
ENDROOT
BRANCH   1  21
ATOM     21  C   UNL     1     -43.249 -20.484 -23.324  0.00  0.00    +0.000 C 
BRANCH  21  22
ATOM     22  C   UNL     1     -42.705 -19.896 -22.068  0.00  0.00    +0.000 C 
ATOM     23  O   UNL     1     -41.554 -19.384 -22.065  0.00  0.00    +0.000 OA
ATOM     24  N   UNL     1     -43.481 -19.946 -20.869  0.00  0.00    +0.000 NA
BRANCH  24  25
ATOM     25  CA  UNL     1     -42.981 -19.435 -19.602  0.00  0.00    +0.000 C 
BRANCH  25  26
ATOM     26  C   UNL     1     -42.360 -20.545 -18.822  0.00  0.00    +0.000 C 
ATOM     27  OXT UNL     1     -41.183 -20.442 -18.386  0.00  0.00    +0.000 OA
ATOM     28  O   UNL     1     -43.091 -21.698 -18.567  0.00  0.00    +0.000 OA
ENDBRANCH  25  26
BRANCH  25  29
ATOM     29  C   UNL     1     -44.110 -18.793 -18.807  0.00  0.00    +0.000 C 
BRANCH  29  30
ATOM     30  C   UNL     1     -44.786 -17.683 -19.602  0.00  0.00    +0.000 C 
BRANCH  30  32
ATOM     31  C   UNL     1     -46.820 -19.114 -19.805  0.00  0.00    +0.000 C 
ATOM     32  C   UNL     1     -46.299 -17.732 -19.460  0.00  0.00    +0.000 C 
ENDBRANCH  30  32
ENDBRANCH  29  30
ENDBRANCH  25  29
ENDBRANCH  24  25
ENDBRANCH  21  22
ENDBRANCH   1  21
TORSDOF 7
ENDMDL
MODEL 2
REMARK VINA RESULT:      -6.9      9.418     16.022
REMARK  Name = ZINC000002155366 PubChem-1804311
REMARK  7 active torsions:
REMARK  status: ('A' for Active; 'I' for Inactive)
REMARK    1  A    between atoms: C_2  and  C_3
REMARK    2  A    between atoms: C_3  and  C_4
REMARK    3  A    between atoms: C_4  and  CA_5
REMARK    4  A    between atoms: CA_5  and  C_6
REMARK    5  A    between atoms: CA_5  and  N_32
REMARK    6  A    between atoms: C_7  and  C_8
REMARK    7  A    between atoms: C_8  and  C_9
REMARK                            x       y       z     vdW  Elec       q    Type
REMARK                         _______ _______ _______ _____ _____    ______ ____
ROOT
ATOM      1  C   UNL     1     -46.572  -4.688 -31.964  0.00  0.00    +0.000 A 
ATOM      2  C   UNL     1     -46.590  -6.093 -31.942  0.00  0.00    +0.000 A 
ATOM      3  C   UNL     1     -46.565  -6.758 -30.705  0.00  0.00    +0.000 A 
ATOM      4  C   UNL     1     -46.522  -5.976 -29.511  0.00  0.00    +0.000 A 
ATOM      5  C   UNL     1     -46.500  -6.605 -28.247  0.00  0.00    +0.000 A 
ATOM      6  C   UNL     1     -46.520  -7.999 -28.212  0.00  0.00    +0.000 A 
ATOM      7  C   UNL     1     -46.552  -8.747 -29.364  0.00  0.00    +0.000 A 
ATOM      8  C   UNL     1     -46.581  -8.168 -30.627  0.00  0.00    +0.000 A 
ATOM      9  C   UNL     1     -46.561 -10.061 -28.969  0.00  0.00    +0.000 A 
ATOM     10  C   UNL     1     -46.559 -10.024 -27.586  0.00  0.00    +0.000 A 
ATOM     11  C   UNL     1     -46.558 -11.254 -26.734  0.00  0.00    +0.000 C 
ATOM     12  C   UNL     1     -47.040 -12.467 -27.546  0.00  0.00    +0.000 C 
ATOM     13  C   UNL     1     -46.352 -12.532 -28.919  0.00  0.00    +0.000 C 
ATOM     14  C   UNL     1     -46.702 -11.310 -29.780  0.00  0.00    +0.000 C 
ATOM     15  C   UNL     1     -46.465  -5.814 -26.984  0.00  0.00    +0.000 C 
ATOM     16  C   UNL     1     -46.529  -3.991 -30.744  0.00  0.00    +0.000 A 
ATOM     17  C   UNL     1     -46.633  -6.871 -33.223  0.00  0.00    +0.000 C 
ATOM     18  O   UNL     1     -46.522  -8.779 -27.151  0.00  0.00    +0.000 OA
ATOM     19  O   UNL     1     -46.506  -4.649 -29.589  0.00  0.00    +0.000 OA
ATOM     20  O   UNL     1     -46.512  -2.731 -30.731  0.00  0.00    +0.000 OA
ENDROOT
BRANCH   1  21
ATOM     21  C   UNL     1     -46.630  -3.934 -33.262  0.00  0.00    +0.000 C 
BRANCH  21  22
ATOM     22  C   UNL     1     -45.334  -3.246 -33.522  0.00  0.00    +0.000 C 
ATOM     23  O   UNL     1     -45.327  -2.026 -33.838  0.00  0.00    +0.000 OA
ATOM     24  N   UNL     1     -44.113  -3.983 -33.444  0.00  0.00    +0.000 NA
BRANCH  24  25
ATOM     25  CA  UNL     1     -42.824  -3.377 -33.739  0.00  0.00    +0.000 C 
BRANCH  25  26
ATOM     26  C   UNL     1     -41.980  -4.338 -34.509  0.00  0.00    +0.000 C 
ATOM     27  OXT UNL     1     -42.495  -5.349 -35.053  0.00  0.00    +0.000 OA
ATOM     28  O   UNL     1     -40.616  -4.108 -34.631  0.00  0.00    +0.000 OA
ENDBRANCH  25  26
BRANCH  25  29
ATOM     29  C   UNL     1     -42.123  -2.968 -32.450  0.00  0.00    +0.000 C 
BRANCH  29  30
ATOM     30  C   UNL     1     -42.409  -1.513 -32.101  0.00  0.00    +0.000 C 
BRANCH  30  32
ATOM     31  C   UNL     1     -40.563   0.154 -31.896  0.00  0.00    +0.000 C 
ATOM     32  C   UNL     1     -41.493  -0.563 -32.857  0.00  0.00    +0.000 C 
ENDBRANCH  30  32
ENDBRANCH  29  30
ENDBRANCH  25  29
ENDBRANCH  24  25
ENDBRANCH  21  22
ENDBRANCH   1  21
TORSDOF 7
ENDMDL
MODEL 3
REMARK VINA RESULT:      -6.8      8.511     14.949
REMARK  Name = ZINC000002155366 PubChem-1804311
REMARK  7 active torsions:
REMARK  status: ('A' for Active; 'I' for Inactive)
REMARK    1  A    between atoms: C_2  and  C_3
REMARK    2  A    between atoms: C_3  and  C_4
REMARK    3  A    between atoms: C_4  and  CA_5
REMARK    4  A    between atoms: CA_5  and  C_6
REMARK    5  A    between atoms: CA_5  and  N_32
REMARK    6  A    between atoms: C_7  and  C_8
REMARK    7  A    between atoms: C_8  and  C_9
REMARK                            x       y       z     vdW  Elec       q    Type
REMARK                         _______ _______ _______ _____ _____    ______ ____
ROOT
ATOM      1  C   UNL     1     -47.040  -4.912 -29.830  0.00  0.00    +0.000 A 
ATOM      2  C   UNL     1     -46.939  -6.267 -30.190  0.00  0.00    +0.000 A 
ATOM      3  C   UNL     1     -46.796  -7.232 -29.181  0.00  0.00    +0.000 A 
ATOM      4  C   UNL     1     -46.761  -6.798 -27.821  0.00  0.00    +0.000 A 
ATOM      5  C   UNL     1     -46.622  -7.739 -26.776  0.00  0.00    +0.000 A 
ATOM      6  C   UNL     1     -46.523  -9.086 -27.120  0.00  0.00    +0.000 A 
ATOM      7  C   UNL     1     -46.549  -9.498 -28.431  0.00  0.00    +0.000 A 
ATOM      8  C   UNL     1     -46.690  -8.607 -29.488  0.00  0.00    +0.000 A 
ATOM      9  C   UNL     1     -46.428 -10.864 -28.406  0.00  0.00    +0.000 A 
ATOM     10  C   UNL     1     -46.360 -11.199 -27.066  0.00  0.00    +0.000 A 
ATOM     11  C   UNL     1     -46.213 -12.607 -26.580  0.00  0.00    +0.000 C 
ATOM     12  C   UNL     1     -46.631 -13.597 -27.678  0.00  0.00    +0.000 C 
ATOM     13  C   UNL     1     -46.009 -13.227 -29.034  0.00  0.00    +0.000 C 
ATOM     14  C   UNL     1     -46.504 -11.857 -29.522  0.00  0.00    +0.000 C 
ATOM     15  C   UNL     1     -46.591  -7.315 -25.347  0.00  0.00    +0.000 C 
ATOM     16  C   UNL     1     -46.996  -4.566 -28.468  0.00  0.00    +0.000 A 
ATOM     17  C   UNL     1     -46.980  -6.673 -31.633  0.00  0.00    +0.000 C 
ATOM     18  O   UNL     1     -46.406 -10.119 -26.311  0.00  0.00    +0.000 OA
ATOM     19  O   UNL     1     -46.859  -5.503 -27.536  0.00  0.00    +0.000 OA
ATOM     20  O   UNL     1     -47.084  -3.360 -28.114  0.00  0.00    +0.000 OA
ENDROOT
BRANCH   1  21
ATOM     21  C   UNL     1     -47.226  -3.847 -30.873  0.00  0.00    +0.000 C 
BRANCH  21  22
ATOM     22  C   UNL     1     -45.944  -3.127 -31.116  0.00  0.00    +0.000 C 
ATOM     23  O   UNL     1     -45.795  -1.953 -30.683  0.00  0.00    +0.000 OA
ATOM     24  N   UNL     1     -44.908  -3.761 -31.866  0.00  0.00    +0.000 NA
BRANCH  24  25
ATOM     25  CA  UNL     1     -43.657  -3.088 -32.180  0.00  0.00    +0.000 C 
BRANCH  25  26
ATOM     26  C   UNL     1     -43.670  -2.637 -33.602  0.00  0.00    +0.000 C 
ATOM     27  OXT UNL     1     -44.638  -1.972 -34.054  0.00  0.00    +0.000 OA
ATOM     28  O   UNL     1     -42.600  -2.948 -34.431  0.00  0.00    +0.000 OA
ENDBRANCH  25  26
BRANCH  25  29
ATOM     29  C   UNL     1     -42.477  -4.018 -31.928  0.00  0.00    +0.000 C 
BRANCH  29  30
ATOM     30  C   UNL     1     -42.943  -5.442 -31.651  0.00  0.00    +0.000 C 
BRANCH  30  32
ATOM     31  C   UNL     1     -43.395  -5.862 -29.233  0.00  0.00    +0.000 C 
ATOM     32  C   UNL     1     -42.372  -5.976 -30.347  0.00  0.00    +0.000 C 
ENDBRANCH  30  32
ENDBRANCH  29  30
ENDBRANCH  25  29
ENDBRANCH  24  25
ENDBRANCH  21  22
ENDBRANCH   1  21
TORSDOF 7
ENDMDL
