MODEL 1
REMARK VINA RESULT:      -6.7      0.000      0.000
REMARK  Name = ZINC000408607104 PubChem-125618484
REMARK  6 active torsions:
REMARK  status: ('A' for Active; 'I' for Inactive)
REMARK    1  A    between atoms: C_2  and  C_3
REMARK    2  A    between atoms: C_3  and  N_22
REMARK    3  A    between atoms: C_4  and  C_5
REMARK    4  A    between atoms: C_6  and  C_7
REMARK    5  A    between atoms: C_8  and  N_25
REMARK    6  A    between atoms: N_23  and  N_24
REMARK                            x       y       z     vdW  Elec       q    Type
REMARK                         _______ _______ _______ _____ _____    ______ ____
ROOT
ATOM      1  C   UNL     1     -46.087  -7.776 -27.418  0.00  0.00    +0.000 A 
ATOM      2  C   UNL     1     -45.764  -9.082 -27.035  0.00  0.00    +0.000 A 
ATOM      3  C   UNL     1     -46.049  -9.836 -28.158  0.00  0.00    +0.000 A 
ATOM      4  C   UNL     1     -45.873 -11.201 -28.370  0.00  0.00    +0.000 A 
ATOM      5  C   UNL     1     -46.184 -11.712 -29.642  0.00  0.00    +0.000 A 
ATOM      6  C   UNL     1     -46.639 -10.854 -30.666  0.00  0.00    +0.000 A 
ATOM      7  C   UNL     1     -46.804  -9.479 -30.424  0.00  0.00    +0.000 A 
ATOM      8  C   UNL     1     -46.516  -9.005 -29.143  0.00  0.00    +0.000 A 
ATOM      9  N   UNL     1     -46.562  -7.740 -28.687  0.00  0.00    +0.000 N 
ATOM     10 CL   UNL     1     -45.987 -13.420 -29.965  0.00  0.00    +0.000 Cl
ENDROOT
BRANCH   9  12
ATOM     11  C   UNL     1     -45.899  -5.691 -29.970  0.00  0.00    +0.000 C 
ATOM     12  N   UNL     1     -46.877  -6.578 -29.414  0.00  0.00    +0.000 NA
ATOM     13  O   UNL     1     -44.696  -6.053 -30.076  0.00  0.00    +0.000 OA
BRANCH  11  14
ATOM     14  C   UNL     1     -46.313  -4.376 -30.471  0.00  0.00    +0.000 C 
ATOM     15  N   UNL     1     -45.525  -3.713 -31.461  0.00  0.00    +0.000 NA
ATOM     16  O   UNL     1     -47.362  -3.835 -30.027  0.00  0.00    +0.000 OA
BRANCH  15  17
ATOM     17  C   UNL     1     -45.890  -2.409 -31.989  0.00  0.00    +0.000 C 
BRANCH  17  19
ATOM     18  C   UNL     1     -44.181  -0.671 -32.397  0.00  0.00    +0.000 C 
ATOM     19  C   UNL     1     -45.030  -1.345 -31.340  0.00  0.00    +0.000 C 
ENDBRANCH  17  19
ENDBRANCH  15  17
ENDBRANCH  11  14
ENDBRANCH   9  12
BRANCH   1  20
ATOM     20  C   UNL     1     -45.929  -6.600 -26.543  0.00  0.00    +0.000 C 
ATOM     21  N   UNL     1     -47.097  -5.962 -26.005  0.00  0.00    +0.000 NA
ATOM     22  O   UNL     1     -44.778  -6.163 -26.275  0.00  0.00    +0.000 OA
BRANCH  21  23
ATOM     23  C   UNL     1     -47.133  -4.817 -25.143  0.00  0.00    +0.000 A 
ATOM     24  C   UNL     1     -47.253  -3.513 -25.645  0.00  0.00    +0.000 A 
ATOM     25  C   UNL     1     -47.282  -2.422 -24.774  0.00  0.00    +0.000 A 
ATOM     26  C   UNL     1     -47.192  -2.619 -23.394  0.00  0.00    +0.000 A 
ATOM     27  C   UNL     1     -47.226  -1.434 -22.492  0.00  0.00    +0.000 C 
ATOM     28  C   UNL     1     -47.070  -3.924 -22.884  0.00  0.00    +0.000 A 
ATOM     29  C   UNL     1     -47.042  -5.012 -23.762  0.00  0.00    +0.000 A 
ATOM     30 CL   UNL     1     -46.953  -4.231 -21.158  0.00  0.00    +0.000 Cl
ENDBRANCH  21  23
ENDBRANCH   1  20
TORSDOF 6
ENDMDL
MODEL 2
REMARK VINA RESULT:      -6.5      1.809      6.996
REMARK  Name = ZINC000408607104 PubChem-125618484
REMARK  6 active torsions:
REMARK  status: ('A' for Active; 'I' for Inactive)
REMARK    1  A    between atoms: C_2  and  C_3
REMARK    2  A    between atoms: C_3  and  N_22
REMARK    3  A    between atoms: C_4  and  C_5
REMARK    4  A    between atoms: C_6  and  C_7
REMARK    5  A    between atoms: C_8  and  N_25
REMARK    6  A    between atoms: N_23  and  N_24
REMARK                            x       y       z     vdW  Elec       q    Type
REMARK                         _______ _______ _______ _____ _____    ______ ____
ROOT
ATOM      1  C   UNL     1     -46.682  -6.578 -26.982  0.00  0.00    +0.000 A 
ATOM      2  C   UNL     1     -46.684  -6.385 -25.598  0.00  0.00    +0.000 A 
ATOM      3  C   UNL     1     -46.878  -5.025 -25.452  0.00  0.00    +0.000 A 
ATOM      4  C   UNL     1     -47.015  -4.274 -24.287  0.00  0.00    +0.000 A 
ATOM      5  C   UNL     1     -47.273  -2.899 -24.421  0.00  0.00    +0.000 A 
ATOM      6  C   UNL     1     -47.407  -2.317 -25.700  0.00  0.00    +0.000 A 
ATOM      7  C   UNL     1     -47.268  -3.100 -26.859  0.00  0.00    +0.000 A 
ATOM      8  C   UNL     1     -46.982  -4.457 -26.696  0.00  0.00    +0.000 A 
ATOM      9  N   UNL     1     -46.841  -5.403 -27.641  0.00  0.00    +0.000 N 
ATOM     10 CL   UNL     1     -47.450  -1.904 -22.992  0.00  0.00    +0.000 Cl
ENDROOT
BRANCH   9  12
ATOM     11  C   UNL     1     -45.894  -5.141 -29.948  0.00  0.00    +0.000 C 
ATOM     12  N   UNL     1     -46.990  -5.255 -29.032  0.00  0.00    +0.000 NA
ATOM     13  O   UNL     1     -44.726  -5.446 -29.585  0.00  0.00    +0.000 OA
BRANCH  11  14
ATOM     14  C   UNL     1     -46.143  -4.721 -31.331  0.00  0.00    +0.000 C 
ATOM     15  N   UNL     1     -45.863  -3.377 -31.726  0.00  0.00    +0.000 NA
ATOM     16  O   UNL     1     -46.604  -5.546 -32.166  0.00  0.00    +0.000 OA
BRANCH  15  17
ATOM     17  C   UNL     1     -46.093  -2.910 -33.083  0.00  0.00    +0.000 C 
BRANCH  17  19
ATOM     18  C   UNL     1     -44.181  -1.573 -32.267  0.00  0.00    +0.000 C 
ATOM     19  C   UNL     1     -44.968  -1.983 -33.493  0.00  0.00    +0.000 C 
ENDBRANCH  17  19
ENDBRANCH  15  17
ENDBRANCH  11  14
ENDBRANCH   9  12
BRANCH   1  20
ATOM     20  C   UNL     1     -46.525  -7.893 -27.630  0.00  0.00    +0.000 C 
ATOM     21  N   UNL     1     -45.469  -8.765 -27.201  0.00  0.00    +0.000 NA
ATOM     22  O   UNL     1     -47.311  -8.241 -28.551  0.00  0.00    +0.000 OA
BRANCH  21  23
ATOM     23  C   UNL     1     -45.169 -10.071 -27.714  0.00  0.00    +0.000 A 
ATOM     24  C   UNL     1     -44.409 -10.255 -28.877  0.00  0.00    +0.000 A 
ATOM     25  C   UNL     1     -44.139 -11.542 -29.347  0.00  0.00    +0.000 A 
ATOM     26  C   UNL     1     -44.624 -12.659 -28.661  0.00  0.00    +0.000 A 
ATOM     27  C   UNL     1     -44.319 -14.018 -29.189  0.00  0.00    +0.000 C 
ATOM     28  C   UNL     1     -45.389 -12.481 -27.494  0.00  0.00    +0.000 A 
ATOM     29  C   UNL     1     -45.655 -11.189 -27.030  0.00  0.00    +0.000 A 
ATOM     30 CL   UNL     1     -46.025 -13.848 -26.593  0.00  0.00    +0.000 Cl
ENDBRANCH  21  23
ENDBRANCH   1  20
TORSDOF 6
ENDMDL
MODEL 3
REMARK VINA RESULT:      -6.4     12.866     15.150
REMARK  Name = ZINC000408607104 PubChem-125618484
REMARK  6 active torsions:
REMARK  status: ('A' for Active; 'I' for Inactive)
REMARK    1  A    between atoms: C_2  and  C_3
REMARK    2  A    between atoms: C_3  and  N_22
REMARK    3  A    between atoms: C_4  and  C_5
REMARK    4  A    between atoms: C_6  and  C_7
REMARK    5  A    between atoms: C_8  and  N_25
REMARK    6  A    between atoms: N_23  and  N_24
REMARK                            x       y       z     vdW  Elec       q    Type
REMARK                         _______ _______ _______ _____ _____    ______ ____
ROOT
ATOM      1  C   UNL     1     -43.852 -19.101 -24.925  0.00  0.00    +0.000 A 
ATOM      2  C   UNL     1     -44.145 -19.111 -26.293  0.00  0.00    +0.000 A 
ATOM      3  C   UNL     1     -42.987 -19.590 -26.876  0.00  0.00    +0.000 A 
ATOM      4  C   UNL     1     -42.722 -19.857 -28.217  0.00  0.00    +0.000 A 
ATOM      5  C   UNL     1     -41.470 -20.410 -28.539  0.00  0.00    +0.000 A 
ATOM      6  C   UNL     1     -40.532 -20.698 -27.524  0.00  0.00    +0.000 A 
ATOM      7  C   UNL     1     -40.829 -20.421 -26.178  0.00  0.00    +0.000 A 
ATOM      8  C   UNL     1     -42.068 -19.845 -25.891  0.00  0.00    +0.000 A 
ATOM      9  N   UNL     1     -42.586 -19.526 -24.691  0.00  0.00    +0.000 N 
ATOM     10 CL   UNL     1     -41.078 -20.762 -30.208  0.00  0.00    +0.000 Cl
ENDROOT
BRANCH   9  12
ATOM     11  C   UNL     1     -42.157 -20.947 -22.671  0.00  0.00    +0.000 C 
ATOM     12  N   UNL     1     -42.011 -19.738 -23.425  0.00  0.00    +0.000 NA
ATOM     13  O   UNL     1     -42.584 -21.996 -23.224  0.00  0.00    +0.000 OA
BRANCH  11  14
ATOM     14  C   UNL     1     -41.755 -20.976 -21.260  0.00  0.00    +0.000 C 
ATOM     15  N   UNL     1     -41.608 -19.752 -20.538  0.00  0.00    +0.000 NA
ATOM     16  O   UNL     1     -41.542 -22.080 -20.690  0.00  0.00    +0.000 OA
BRANCH  15  17
ATOM     17  C   UNL     1     -41.211 -19.726 -19.140  0.00  0.00    +0.000 C 
BRANCH  17  19
ATOM     18  C   UNL     1     -41.986 -19.301 -16.832  0.00  0.00    +0.000 C 
ATOM     19  C   UNL     1     -42.393 -19.308 -18.290  0.00  0.00    +0.000 C 
ENDBRANCH  17  19
ENDBRANCH  15  17
ENDBRANCH  11  14
ENDBRANCH   9  12
BRANCH   1  20
ATOM     20  C   UNL     1     -44.806 -18.679 -23.883  0.00  0.00    +0.000 C 
ATOM     21  N   UNL     1     -44.318 -18.001 -22.717  0.00  0.00    +0.000 NA
ATOM     22  O   UNL     1     -46.036 -18.916 -24.020  0.00  0.00    +0.000 OA
BRANCH  21  23
ATOM     23  C   UNL     1     -45.095 -17.522 -21.611  0.00  0.00    +0.000 A 
ATOM     24  C   UNL     1     -45.465 -18.357 -20.546  0.00  0.00    +0.000 A 
ATOM     25  C   UNL     1     -46.225 -17.854 -19.487  0.00  0.00    +0.000 A 
ATOM     26  C   UNL     1     -46.622 -16.514 -19.478  0.00  0.00    +0.000 A 
ATOM     27  C   UNL     1     -47.431 -16.010 -18.334  0.00  0.00    +0.000 C 
ATOM     28  C   UNL     1     -46.254 -15.673 -20.543  0.00  0.00    +0.000 A 
ATOM     29  C   UNL     1     -45.494 -16.182 -21.600  0.00  0.00    +0.000 A 
ATOM     30 CL   UNL     1     -46.727 -13.981 -20.584  0.00  0.00    +0.000 Cl
ENDBRANCH  21  23
ENDBRANCH   1  20
TORSDOF 6
ENDMDL
