MODEL 1
REMARK VINA RESULT:      -7.0      0.000      0.000
REMARK  Name = ZINC000031809732
REMARK  3 active torsions:
REMARK  status: ('A' for Active; 'I' for Inactive)
REMARK    1  A    between atoms: C_1  and  C_26
REMARK    2  A    between atoms: C_24  and  O_33
REMARK    3  A    between atoms: C_29  and  O_30
REMARK                            x       y       z     vdW  Elec       q    Type
REMARK                         _______ _______ _______ _____ _____    ______ ____
ROOT
ATOM      1  C   UNL     1     -45.646 -15.957 -19.916  0.00  0.00    +0.000 C 
ATOM      2  S   UNL     1     -47.018 -15.133 -19.061  0.00  0.00    +0.000 S 
ATOM      3  C   UNL     1     -46.062 -13.607 -19.045  0.00  0.00    +0.000 C 
ATOM      4  C   UNL     1     -46.465 -12.777 -20.205  0.00  0.00    +0.000 C 
ATOM      5  O   UNL     1     -46.932 -11.629 -19.989  0.00  0.00    +0.000 OA
ATOM      6  N   UNL     1     -46.334 -13.227 -21.557  0.00  0.00    +0.000 N 
ATOM      7  C   UNL     1     -45.878 -14.485 -22.084  0.00  0.00    +0.000 A 
ATOM      8  C   UNL     1     -45.648 -15.692 -21.411  0.00  0.00    +0.000 A 
ATOM      9  C   UNL     1     -45.289 -16.567 -22.443  0.00  0.00    +0.000 A 
ATOM     10  C   UNL     1     -44.839 -17.981 -22.325  0.00  0.00    +0.000 C 
ATOM     11  N   UNL     1     -45.345 -15.938 -23.630  0.00  0.00    +0.000 NA
ATOM     12  N   UNL     1     -45.694 -14.684 -23.408  0.00  0.00    +0.000 N 
ATOM     13  H   UNL     1     -46.598 -12.567 -22.238  0.00  0.00    +0.000 HD
ATOM     14  C   UNL     1     -45.868 -13.733 -24.469  0.00  0.00    +0.000 A 
ATOM     15  N   UNL     1     -46.362 -14.139 -25.677  0.00  0.00    +0.000 NA
ATOM     16  C   UNL     1     -46.513 -13.263 -26.721  0.00  0.00    +0.000 A 
ATOM     17  N   UNL     1     -46.155 -11.951 -26.583  0.00  0.00    +0.000 NA
ATOM     18  C   UNL     1     -45.653 -11.550 -25.391  0.00  0.00    +0.000 A 
ATOM     19  N   UNL     1     -45.197 -10.329 -25.088  0.00  0.00    +0.000 N 
ATOM     20  C   UNL     1     -44.755 -10.489 -23.811  0.00  0.00    +0.000 A 
ATOM     21  N   UNL     1     -44.916 -11.752 -23.326  0.00  0.00    +0.000 NA
ATOM     22  C   UNL     1     -45.497 -12.394 -24.350  0.00  0.00    +0.000 A 
ATOM     23  H   UNL     1     -45.185  -9.519 -25.647  0.00  0.00    +0.000 HD
ENDROOT
BRANCH   1  26
ATOM     24  C   UNL     1     -44.445 -19.348 -18.636  0.00  0.00    +0.000 A 
ATOM     25  C   UNL     1     -44.456 -17.991 -18.997  0.00  0.00    +0.000 A 
ATOM     26  C   UNL     1     -45.616 -17.404 -19.526  0.00  0.00    +0.000 A 
ATOM     27  C   UNL     1     -46.764 -18.181 -19.699  0.00  0.00    +0.000 A 
ATOM     28  C   UNL     1     -46.759 -19.532 -19.344  0.00  0.00    +0.000 A 
ATOM     29  C   UNL     1     -45.605 -20.115 -18.812  0.00  0.00    +0.000 A 
BRANCH  29  30
ATOM     30  O   UNL     1     -45.616 -21.459 -18.463  0.00  0.00    +0.000 OA
ATOM     31  H   UNL     1     -44.831 -21.871 -18.159  0.00  0.00    +0.000 HD
ENDBRANCH  29  30
BRANCH  24  33
ATOM     32  C   UNL     1     -42.260 -20.476 -18.916  0.00  0.00    +0.000 C 
ATOM     33  O   UNL     1     -43.299 -19.949 -18.103  0.00  0.00    +0.000 OA
ENDBRANCH  24  33
ENDBRANCH   1  26
TORSDOF 3
ENDMDL
MODEL 2
REMARK VINA RESULT:      -6.8      2.642      3.916
REMARK  Name = ZINC000031809732
REMARK  3 active torsions:
REMARK  status: ('A' for Active; 'I' for Inactive)
REMARK    1  A    between atoms: C_1  and  C_26
REMARK    2  A    between atoms: C_24  and  O_33
REMARK    3  A    between atoms: C_29  and  O_30
REMARK                            x       y       z     vdW  Elec       q    Type
REMARK                         _______ _______ _______ _____ _____    ______ ____
ROOT
ATOM      1  C   UNL     1     -44.931 -17.176 -23.365  0.00  0.00    +0.000 C 
ATOM      2  S   UNL     1     -43.435 -17.509 -24.337  0.00  0.00    +0.000 S 
ATOM      3  C   UNL     1     -44.436 -17.521 -25.834  0.00  0.00    +0.000 C 
ATOM      4  C   UNL     1     -44.380 -16.179 -26.458  0.00  0.00    +0.000 C 
ATOM      5  O   UNL     1     -43.936 -16.079 -27.632  0.00  0.00    +0.000 OA
ATOM      6  N   UNL     1     -44.821 -14.996 -25.784  0.00  0.00    +0.000 N 
ATOM      7  C   UNL     1     -45.326 -14.812 -24.450  0.00  0.00    +0.000 A 
ATOM      8  C   UNL     1     -45.315 -15.707 -23.373  0.00  0.00    +0.000 A 
ATOM      9  C   UNL     1     -45.874 -14.957 -22.332  0.00  0.00    +0.000 A 
ATOM     10  C   UNL     1     -46.204 -15.413 -20.953  0.00  0.00    +0.000 C 
ATOM     11  N   UNL     1     -46.149 -13.709 -22.750  0.00  0.00    +0.000 NA
ATOM     12  N   UNL     1     -45.823 -13.629 -24.028  0.00  0.00    +0.000 N 
ATOM     13  H   UNL     1     -44.770 -14.172 -26.322  0.00  0.00    +0.000 HD
ATOM     14  C   UNL     1     -45.971 -12.419 -24.786  0.00  0.00    +0.000 A 
ATOM     15  N   UNL     1     -45.773 -11.207 -24.186  0.00  0.00    +0.000 NA
ATOM     16  C   UNL     1     -45.934 -10.032 -24.873  0.00  0.00    +0.000 A 
ATOM     17  N   UNL     1     -46.316 -10.043 -26.186  0.00  0.00    +0.000 NA
ATOM     18  C   UNL     1     -46.526 -11.242 -26.778  0.00  0.00    +0.000 A 
ATOM     19  N   UNL     1     -46.956 -11.451 -28.028  0.00  0.00    +0.000 N 
ATOM     20  C   UNL     1     -47.056 -12.807 -28.082  0.00  0.00    +0.000 A 
ATOM     21  N   UNL     1     -46.712 -13.432 -26.922  0.00  0.00    +0.000 NA
ATOM     22  C   UNL     1     -46.371 -12.412 -26.122  0.00  0.00    +0.000 A 
ATOM     23  H   UNL     1     -47.150 -10.790 -28.731  0.00  0.00    +0.000 HD
ENDROOT
BRANCH   1  26
ATOM     24  C   UNL     1     -43.470 -18.253 -20.006  0.00  0.00    +0.000 A 
ATOM     25  C   UNL     1     -43.590 -17.673 -21.279  0.00  0.00    +0.000 A 
ATOM     26  C   UNL     1     -44.785 -17.790 -22.005  0.00  0.00    +0.000 A 
ATOM     27  C   UNL     1     -45.859 -18.494 -21.456  0.00  0.00    +0.000 A 
ATOM     28  C   UNL     1     -45.746 -19.075 -20.190  0.00  0.00    +0.000 A 
ATOM     29  C   UNL     1     -44.557 -18.954 -19.465  0.00  0.00    +0.000 A 
BRANCH  29  30
ATOM     30  O   UNL     1     -44.460 -19.536 -18.208  0.00  0.00    +0.000 OA
ATOM     31  H   UNL     1     -44.669 -19.037 -17.443  0.00  0.00    +0.000 HD
ENDBRANCH  29  30
BRANCH  24  33
ATOM     32  C   UNL     1     -41.154 -18.967 -19.503  0.00  0.00    +0.000 C 
ATOM     33  O   UNL     1     -42.288 -18.144 -19.266  0.00  0.00    +0.000 OA
ENDBRANCH  24  33
ENDBRANCH   1  26
TORSDOF 3
ENDMDL
MODEL 3
REMARK VINA RESULT:      -6.6      9.756     13.018
REMARK  Name = ZINC000031809732
REMARK  3 active torsions:
REMARK  status: ('A' for Active; 'I' for Inactive)
REMARK    1  A    between atoms: C_1  and  C_26
REMARK    2  A    between atoms: C_24  and  O_33
REMARK    3  A    between atoms: C_29  and  O_30
REMARK                            x       y       z     vdW  Elec       q    Type
REMARK                         _______ _______ _______ _____ _____    ______ ____
ROOT
ATOM      1  C   UNL     1     -44.188  -7.946 -29.780  0.00  0.00    +0.000 C 
ATOM      2  S   UNL     1     -42.544  -7.875 -29.014  0.00  0.00    +0.000 S 
ATOM      3  C   UNL     1     -41.815  -7.689 -30.650  0.00  0.00    +0.000 C 
ATOM      4  C   UNL     1     -41.602  -6.248 -30.919  0.00  0.00    +0.000 C 
ATOM      5  O   UNL     1     -40.433  -5.846 -31.152  0.00  0.00    +0.000 OA
ATOM      6  N   UNL     1     -42.675  -5.300 -30.933  0.00  0.00    +0.000 N 
ATOM      7  C   UNL     1     -44.078  -5.471 -30.666  0.00  0.00    +0.000 A 
ATOM      8  C   UNL     1     -44.741  -6.568 -30.101  0.00  0.00    +0.000 A 
ATOM      9  C   UNL     1     -46.069  -6.133 -30.028  0.00  0.00    +0.000 A 
ATOM     10  C   UNL     1     -47.261  -6.911 -29.593  0.00  0.00    +0.000 C 
ATOM     11  N   UNL     1     -46.171  -4.868 -30.473  0.00  0.00    +0.000 NA
ATOM     12  N   UNL     1     -44.971  -4.476 -30.861  0.00  0.00    +0.000 N 
ATOM     13  H   UNL     1     -42.409  -4.381 -31.165  0.00  0.00    +0.000 HD
ATOM     14  C   UNL     1     -44.719  -3.160 -31.374  0.00  0.00    +0.000 A 
ATOM     15  N   UNL     1     -45.414  -2.090 -30.883  0.00  0.00    +0.000 NA
ATOM     16  C   UNL     1     -45.218  -0.823 -31.371  0.00  0.00    +0.000 A 
ATOM     17  N   UNL     1     -44.326  -0.599 -32.382  0.00  0.00    +0.000 NA
ATOM     18  C   UNL     1     -43.647  -1.660 -32.880  0.00  0.00    +0.000 A 
ATOM     19  N   UNL     1     -42.783  -1.647 -33.901  0.00  0.00    +0.000 N 
ATOM     20  C   UNL     1     -42.453  -2.962 -34.024  0.00  0.00    +0.000 A 
ATOM     21  N   UNL     1     -43.082  -3.774 -33.129  0.00  0.00    +0.000 NA
ATOM     22  C   UNL     1     -43.822  -2.915 -32.414  0.00  0.00    +0.000 A 
ATOM     23  H   UNL     1     -42.464  -0.880 -34.428  0.00  0.00    +0.000 HD
ENDROOT
BRANCH   1  26
ATOM     24  C   UNL     1     -46.064  -9.431 -26.804  0.00  0.00    +0.000 A 
ATOM     25  C   UNL     1     -45.219  -8.610 -27.568  0.00  0.00    +0.000 A 
ATOM     26  C   UNL     1     -45.085  -8.813 -28.950  0.00  0.00    +0.000 A 
ATOM     27  C   UNL     1     -45.796  -9.847 -29.566  0.00  0.00    +0.000 A 
ATOM     28  C   UNL     1     -46.637 -10.669 -28.812  0.00  0.00    +0.000 A 
ATOM     29  C   UNL     1     -46.773 -10.463 -27.437  0.00  0.00    +0.000 A 
BRANCH  29  30
ATOM     30  O   UNL     1     -47.614 -11.288 -26.701  0.00  0.00    +0.000 OA
ATOM     31  H   UNL     1     -48.489 -11.450 -26.997  0.00  0.00    +0.000 HD
ENDBRANCH  29  30
BRANCH  24  33
ATOM     32  C   UNL     1     -45.338  -8.419 -24.666  0.00  0.00    +0.000 C 
ATOM     33  O   UNL     1     -46.212  -9.241 -25.426  0.00  0.00    +0.000 OA
ENDBRANCH  24  33
ENDBRANCH   1  26
TORSDOF 3
ENDMDL
