MODEL 1
REMARK VINA RESULT:      -7.9      0.000      0.000
REMARK  Name = ZINC000040009606 ZINC40009606 CSC027005518 MCULE-5704859829 MolPort-009-402-766 PubChem-45858595
REMARK  3 active torsions:
REMARK  status: ('A' for Active; 'I' for Inactive)
REMARK    1  A    between atoms: C_1  and  C_2
REMARK    2  A    between atoms: C_1  and  C_16
REMARK    3  A    between atoms: C_16  and  C_26
REMARK                            x       y       z     vdW  Elec       q    Type
REMARK                         _______ _______ _______ _____ _____    ______ ____
ROOT
ATOM      1  C   UNL     1     -47.176  -4.973 -31.183  0.00  0.00    +0.000 C 
ENDROOT
BRANCH   1   2
ATOM      2  C   UNL     1     -46.837  -4.507 -29.804  0.00  0.00    +0.000 C 
ATOM      3  O   UNL     1     -46.459  -3.314 -29.654  0.00  0.00    +0.000 OA
ATOM      4  N   UNL     1     -46.896  -5.404 -28.676  0.00  0.00    +0.000 N 
ATOM      5  C   UNL     1     -46.918  -6.849 -28.935  0.00  0.00    +0.000 C 
ATOM      6  C   UNL     1     -46.225  -7.616 -27.850  0.00  0.00    +0.000 C 
ATOM      7  O   UNL     1     -45.739  -8.750 -28.096  0.00  0.00    +0.000 OA
ATOM      8  N   UNL     1     -46.180  -7.094 -26.523  0.00  0.00    +0.000 N 
ATOM      9  C   UNL     1     -46.639  -5.770 -26.252  0.00  0.00    +0.000 A 
ATOM     10  C   UNL     1     -46.715  -5.319 -24.930  0.00  0.00    +0.000 A 
ATOM     11  C   UNL     1     -47.164  -4.025 -24.658  0.00  0.00    +0.000 A 
ATOM     12  C   UNL     1     -47.534  -3.178 -25.706  0.00  0.00    +0.000 A 
ATOM     13  C   UNL     1     -47.450  -3.623 -27.028  0.00  0.00    +0.000 A 
ATOM     14  C   UNL     1     -46.995  -4.921 -27.315  0.00  0.00    +0.000 A 
ATOM     15  H   UNL     1     -45.829  -7.651 -25.789  0.00  0.00    +0.000 HD
ENDBRANCH   1   2
BRANCH   1  16
ATOM     16  C   UNL     1     -45.909  -5.321 -31.944  0.00  0.00    +0.000 C 
BRANCH  16  26
ATOM     17  C   UNL     1     -40.826  -0.101 -32.619  0.00  0.00    +0.000 C 
ATOM     18  C   UNL     1     -42.036  -0.961 -32.696  0.00  0.00    +0.000 A 
ATOM     19  N   UNL     1     -42.152  -2.139 -32.042  0.00  0.00    +0.000 NA
ATOM     20  N   UNL     1     -43.347  -2.606 -32.347  0.00  0.00    +0.000 N 
ATOM     21  C   UNL     1     -43.970  -1.753 -33.167  0.00  0.00    +0.000 A 
ATOM     22  C   UNL     1     -43.178  -0.658 -33.439  0.00  0.00    +0.000 A 
ATOM     23  N   UNL     1     -45.218  -2.000 -33.631  0.00  0.00    +0.000 NA
ATOM     24  C   UNL     1     -45.854  -3.145 -33.251  0.00  0.00    +0.000 A 
ATOM     25  C   UNL     1     -47.229  -3.402 -33.769  0.00  0.00    +0.000 C 
ATOM     26  C   UNL     1     -45.213  -4.068 -32.384  0.00  0.00    +0.000 A 
ATOM     27  C   UNL     1     -43.914  -3.764 -31.926  0.00  0.00    +0.000 A 
ATOM     28  C   UNL     1     -43.170  -4.681 -31.007  0.00  0.00    +0.000 C 
ENDBRANCH  16  26
ENDBRANCH   1  16
TORSDOF 3
ENDMDL
MODEL 2
REMARK VINA RESULT:      -7.6      1.952      6.832
REMARK  Name = ZINC000040009606 ZINC40009606 CSC027005518 MCULE-5704859829 MolPort-009-402-766 PubChem-45858595
REMARK  3 active torsions:
REMARK  status: ('A' for Active; 'I' for Inactive)
REMARK    1  A    between atoms: C_1  and  C_2
REMARK    2  A    between atoms: C_1  and  C_16
REMARK    3  A    between atoms: C_16  and  C_26
REMARK                            x       y       z     vdW  Elec       q    Type
REMARK                         _______ _______ _______ _____ _____    ______ ____
ROOT
ATOM      1  C   UNL     1     -45.429  -6.818 -31.109  0.00  0.00    +0.000 C 
ENDROOT
BRANCH   1   2
ATOM      2  C   UNL     1     -45.132  -5.567 -31.871  0.00  0.00    +0.000 C 
ATOM      3  O   UNL     1     -45.968  -5.177 -32.728  0.00  0.00    +0.000 OA
ATOM      4  N   UNL     1     -43.902  -4.841 -31.666  0.00  0.00    +0.000 N 
ATOM      5  C   UNL     1     -42.789  -5.529 -30.999  0.00  0.00    +0.000 C 
ATOM      6  C   UNL     1     -41.461  -5.056 -31.509  0.00  0.00    +0.000 C 
ATOM      7  O   UNL     1     -40.455  -5.807 -31.426  0.00  0.00    +0.000 OA
ATOM      8  N   UNL     1     -41.323  -3.732 -32.021  0.00  0.00    +0.000 N 
ATOM      9  C   UNL     1     -42.472  -2.908 -32.212  0.00  0.00    +0.000 A 
ATOM     10  C   UNL     1     -42.313  -1.570 -32.585  0.00  0.00    +0.000 A 
ATOM     11  C   UNL     1     -43.434  -0.757 -32.773  0.00  0.00    +0.000 A 
ATOM     12  C   UNL     1     -44.715  -1.282 -32.590  0.00  0.00    +0.000 A 
ATOM     13  C   UNL     1     -44.878  -2.621 -32.226  0.00  0.00    +0.000 A 
ATOM     14  C   UNL     1     -43.759  -3.450 -32.039  0.00  0.00    +0.000 A 
ATOM     15  H   UNL     1     -40.429  -3.385 -32.245  0.00  0.00    +0.000 HD
ENDBRANCH   1   2
BRANCH   1  16
ATOM     16  C   UNL     1     -46.849  -6.778 -30.573  0.00  0.00    +0.000 C 
BRANCH  16  26
ATOM     17  C   UNL     1     -47.647  -2.007 -25.083  0.00  0.00    +0.000 C 
ATOM     18  C   UNL     1     -47.382  -3.186 -25.949  0.00  0.00    +0.000 A 
ATOM     19  N   UNL     1     -47.581  -3.185 -27.286  0.00  0.00    +0.000 NA
ATOM     20  N   UNL     1     -47.241  -4.389 -27.703  0.00  0.00    +0.000 N 
ATOM     21  C   UNL     1     -46.838  -5.130 -26.665  0.00  0.00    +0.000 A 
ATOM     22  C   UNL     1     -46.903  -4.414 -25.489  0.00  0.00    +0.000 A 
ATOM     23  N   UNL     1     -46.432  -6.412 -26.825  0.00  0.00    +0.000 NA
ATOM     24  C   UNL     1     -46.434  -6.959 -28.074  0.00  0.00    +0.000 A 
ATOM     25  C   UNL     1     -45.984  -8.373 -28.235  0.00  0.00    +0.000 C 
ATOM     26  C   UNL     1     -46.861  -6.195 -29.192  0.00  0.00    +0.000 A 
ATOM     27  C   UNL     1     -47.271  -4.862 -28.974  0.00  0.00    +0.000 A 
ATOM     28  C   UNL     1     -47.730  -3.988 -30.097  0.00  0.00    +0.000 C 
ENDBRANCH  16  26
ENDBRANCH   1  16
TORSDOF 3
ENDMDL
MODEL 3
REMARK VINA RESULT:      -7.5      2.227      4.030
REMARK  Name = ZINC000040009606 ZINC40009606 CSC027005518 MCULE-5704859829 MolPort-009-402-766 PubChem-45858595
REMARK  3 active torsions:
REMARK  status: ('A' for Active; 'I' for Inactive)
REMARK    1  A    between atoms: C_1  and  C_2
REMARK    2  A    between atoms: C_1  and  C_16
REMARK    3  A    between atoms: C_16  and  C_26
REMARK                            x       y       z     vdW  Elec       q    Type
REMARK                         _______ _______ _______ _____ _____    ______ ____
ROOT
ATOM      1  C   UNL     1     -45.911  -2.922 -32.006  0.00  0.00    +0.000 C 
ENDROOT
BRANCH   1   2
ATOM      2  C   UNL     1     -46.637  -4.229 -31.993  0.00  0.00    +0.000 C 
ATOM      3  O   UNL     1     -47.299  -4.554 -33.014  0.00  0.00    +0.000 OA
ATOM      4  N   UNL     1     -46.621  -5.081 -30.829  0.00  0.00    +0.000 N 
ATOM      5  C   UNL     1     -46.215  -4.498 -29.543  0.00  0.00    +0.000 C 
ATOM      6  C   UNL     1     -46.933  -5.139 -28.395  0.00  0.00    +0.000 C 
ATOM      7  O   UNL     1     -47.085  -4.506 -27.318  0.00  0.00    +0.000 OA
ATOM      8  N   UNL     1     -47.382  -6.490 -28.496  0.00  0.00    +0.000 N 
ATOM      9  C   UNL     1     -47.305  -7.185 -29.740  0.00  0.00    +0.000 A 
ATOM     10  C   UNL     1     -47.620  -8.546 -29.796  0.00  0.00    +0.000 A 
ATOM     11  C   UNL     1     -47.546  -9.232 -31.010  0.00  0.00    +0.000 A 
ATOM     12  C   UNL     1     -47.161  -8.558 -32.172  0.00  0.00    +0.000 A 
ATOM     13  C   UNL     1     -46.854  -7.195 -32.121  0.00  0.00    +0.000 A 
ATOM     14  C   UNL     1     -46.929  -6.493 -30.906  0.00  0.00    +0.000 A 
ATOM     15  H   UNL     1     -47.746  -6.946 -27.702  0.00  0.00    +0.000 HD
ENDBRANCH   1   2
BRANCH   1  16
ATOM     16  C   UNL     1     -45.284  -2.687 -33.369  0.00  0.00    +0.000 C 
BRANCH  16  26
ATOM     17  C   UNL     1     -38.735   0.288 -32.031  0.00  0.00    +0.000 C 
ATOM     18  C   UNL     1     -39.879  -0.590 -32.389  0.00  0.00    +0.000 A 
ATOM     19  N   UNL     1     -41.170  -0.200 -32.300  0.00  0.00    +0.000 NA
ATOM     20  N   UNL     1     -41.888  -1.233 -32.697  0.00  0.00    +0.000 N 
ATOM     21  C   UNL     1     -41.080  -2.246 -33.027  0.00  0.00    +0.000 A 
ATOM     22  C   UNL     1     -39.757  -1.902 -32.852  0.00  0.00    +0.000 A 
ATOM     23  N   UNL     1     -41.570  -3.428 -33.469  0.00  0.00    +0.000 NA
ATOM     24  C   UNL     1     -42.920  -3.589 -33.580  0.00  0.00    +0.000 A 
ATOM     25  C   UNL     1     -43.445  -4.897 -34.069  0.00  0.00    +0.000 C 
ATOM     26  C   UNL     1     -43.799  -2.531 -33.232  0.00  0.00    +0.000 A 
ATOM     27  C   UNL     1     -43.240  -1.316 -32.780  0.00  0.00    +0.000 A 
ATOM     28  C   UNL     1     -44.096  -0.150 -32.398  0.00  0.00    +0.000 C 
ENDBRANCH  16  26
ENDBRANCH   1  16
TORSDOF 3
ENDMDL
