MODEL 1
REMARK VINA RESULT:      -5.9      0.000      0.000
REMARK  Name = ZINC000004686535 ZINC04686535 PubChem-92227604
REMARK  5 active torsions:
REMARK  status: ('A' for Active; 'I' for Inactive)
REMARK    1  A    between atoms: C_6  and  N_23
REMARK    2  A    between atoms: C_9  and  C_10
REMARK    3  A    between atoms: C_14  and  C_15
REMARK    4  A    between atoms: C_14  and  N_24
REMARK    5  A    between atoms: C_15  and  C_16
REMARK                            x       y       z     vdW  Elec       q    Type
REMARK                         _______ _______ _______ _____ _____    ______ ____
ROOT
ATOM      1  C   UNL     1     -44.943 -13.876 -25.073  0.00  0.00    +0.000 C 
ATOM      2  C   UNL     1     -45.881 -12.709 -25.425  0.00  0.00    +0.000 C 
ATOM      3  C   UNL     1     -46.195 -12.790 -26.924  0.00  0.00    +0.000 C 
ATOM      4  C   UNL     1     -45.387 -13.936 -27.377  0.00  0.00    +0.000 C 
ATOM      5  C   UNL     1     -43.664 -13.319 -24.463  0.00  0.00    +0.000 C 
ATOM      6  N   UNL     1     -44.647 -14.540 -26.337  0.00  0.00    +0.000 N 
ATOM      7  O   UNL     1     -45.367 -14.347 -28.568  0.00  0.00    +0.000 OA
ENDROOT
BRANCH   1   8
ATOM      8  C   UNL     1     -45.649 -14.808 -24.122  0.00  0.00    +0.000 C 
ATOM      9  N   UNL     1     -44.919 -15.414 -23.050  0.00  0.00    +0.000 NA
ATOM     10  O   UNL     1     -46.862 -15.105 -24.304  0.00  0.00    +0.000 OA
BRANCH   9  16
ATOM     11  C   UNL     1     -46.881 -16.183 -18.522  0.00  0.00    +0.000 C 
ATOM     12  C   UNL     1     -46.476 -16.779 -19.860  0.00  0.00    +0.000 C 
ATOM     13  C   UNL     1     -45.545 -17.973 -19.660  0.00  0.00    +0.000 C 
ATOM     14  C   UNL     1     -45.210 -18.608 -21.008  0.00  0.00    +0.000 C 
ATOM     15  C   UNL     1     -44.568 -17.582 -21.939  0.00  0.00    +0.000 C 
ATOM     16  C   UNL     1     -45.507 -16.387 -22.137  0.00  0.00    +0.000 C 
ATOM     17  C   UNL     1     -45.851 -15.729 -20.793  0.00  0.00    +0.000 C 
ATOM     18  C   UNL     1     -44.631 -15.053 -20.164  0.00  0.00    +0.000 C 
ENDBRANCH   9  16
ENDBRANCH   1   8
BRANCH   6  19
ATOM     19  C   UNL     1     -43.847 -15.756 -26.479  0.00  0.00    +0.000 C 
BRANCH  19  20
ATOM     20  C   UNL     1     -44.737 -16.992 -26.535  0.00  0.00    +0.000 C 
BRANCH  20  21
ATOM     21  C   UNL     1     -44.185 -18.101 -25.707  0.00  0.00    +0.000 A 
ATOM     22  C   UNL     1     -44.981 -19.205 -25.373  0.00  0.00    +0.000 A 
ATOM     23  C   UNL     1     -44.453 -20.240 -24.597  0.00  0.00    +0.000 A 
ATOM     24  C   UNL     1     -43.127 -20.176 -24.155  0.00  0.00    +0.000 A 
ATOM     25  C   UNL     1     -42.329 -19.080 -24.494  0.00  0.00    +0.000 A 
ATOM     26  C   UNL     1     -42.857 -18.044 -25.271  0.00  0.00    +0.000 A 
ATOM     27 CL   UNL     1     -42.466 -21.472 -23.182  0.00  0.00    +0.000 Cl
ENDBRANCH  20  21
ENDBRANCH  19  20
ENDBRANCH   6  19
TORSDOF 5
ENDMDL
MODEL 2
REMARK VINA RESULT:      -5.7     10.905     14.155
REMARK  Name = ZINC000004686535 ZINC04686535 PubChem-92227604
REMARK  5 active torsions:
REMARK  status: ('A' for Active; 'I' for Inactive)
REMARK    1  A    between atoms: C_6  and  N_23
REMARK    2  A    between atoms: C_9  and  C_10
REMARK    3  A    between atoms: C_14  and  C_15
REMARK    4  A    between atoms: C_14  and  N_24
REMARK    5  A    between atoms: C_15  and  C_16
REMARK                            x       y       z     vdW  Elec       q    Type
REMARK                         _______ _______ _______ _____ _____    ______ ____
ROOT
ATOM      1  C   UNL     1     -46.148  -3.768 -33.165  0.00  0.00    +0.000 C 
ATOM      2  C   UNL     1     -45.300  -2.661 -33.814  0.00  0.00    +0.000 C 
ATOM      3  C   UNL     1     -44.898  -1.669 -32.716  0.00  0.00    +0.000 C 
ATOM      4  C   UNL     1     -45.574  -2.197 -31.519  0.00  0.00    +0.000 C 
ATOM      5  C   UNL     1     -47.503  -3.825 -33.857  0.00  0.00    +0.000 C 
ATOM      6  N   UNL     1     -46.314  -3.374 -31.771  0.00  0.00    +0.000 N 
ATOM      7  O   UNL     1     -45.492  -1.664 -30.380  0.00  0.00    +0.000 OA
ENDROOT
BRANCH   1   8
ATOM      8  C   UNL     1     -45.416  -5.081 -33.274  0.00  0.00    +0.000 C 
ATOM      9  N   UNL     1     -46.122  -6.255 -33.691  0.00  0.00    +0.000 NA
ATOM     10  O   UNL     1     -44.202  -5.163 -32.940  0.00  0.00    +0.000 OA
BRANCH   9  16
ATOM     11  C   UNL     1     -43.407  -9.450 -36.405  0.00  0.00    +0.000 C 
ATOM     12  C   UNL     1     -44.160  -9.187 -35.111  0.00  0.00    +0.000 C 
ATOM     13  C   UNL     1     -45.195 -10.281 -34.856  0.00  0.00    +0.000 C 
ATOM     14  C   UNL     1     -45.887 -10.045 -33.516  0.00  0.00    +0.000 C 
ATOM     15  C   UNL     1     -46.550  -8.670 -33.490  0.00  0.00    +0.000 C 
ATOM     16  C   UNL     1     -45.508  -7.576 -33.745  0.00  0.00    +0.000 C 
ATOM     17  C   UNL     1     -44.803  -7.790 -35.092  0.00  0.00    +0.000 C 
ATOM     18  C   UNL     1     -45.756  -7.579 -36.270  0.00  0.00    +0.000 C 
ENDBRANCH   9  16
ENDBRANCH   1   8
BRANCH   6  19
ATOM     19  C   UNL     1     -46.994  -4.168 -30.749  0.00  0.00    +0.000 C 
BRANCH  19  20
ATOM     20  C   UNL     1     -45.988  -4.880 -29.852  0.00  0.00    +0.000 C 
BRANCH  20  21
ATOM     21  C   UNL     1     -46.174  -6.358 -29.889  0.00  0.00    +0.000 A 
ATOM     22  C   UNL     1     -47.459  -6.915 -29.872  0.00  0.00    +0.000 A 
ATOM     23  C   UNL     1     -47.622  -8.302 -29.908  0.00  0.00    +0.000 A 
ATOM     24  C   UNL     1     -46.501  -9.137 -29.962  0.00  0.00    +0.000 A 
ATOM     25  C   UNL     1     -45.218  -8.583 -29.987  0.00  0.00    +0.000 A 
ATOM     26  C   UNL     1     -45.054  -7.195 -29.952  0.00  0.00    +0.000 A 
ATOM     27 CL   UNL     1     -46.705 -10.874 -30.005  0.00  0.00    +0.000 Cl
ENDBRANCH  20  21
ENDBRANCH  19  20
ENDBRANCH   6  19
TORSDOF 5
ENDMDL
MODEL 3
REMARK VINA RESULT:      -5.7      2.574      4.029
REMARK  Name = ZINC000004686535 ZINC04686535 PubChem-92227604
REMARK  5 active torsions:
REMARK  status: ('A' for Active; 'I' for Inactive)
REMARK    1  A    between atoms: C_6  and  N_23
REMARK    2  A    between atoms: C_9  and  C_10
REMARK    3  A    between atoms: C_14  and  C_15
REMARK    4  A    between atoms: C_14  and  N_24
REMARK    5  A    between atoms: C_15  and  C_16
REMARK                            x       y       z     vdW  Elec       q    Type
REMARK                         _______ _______ _______ _____ _____    ______ ____
ROOT
ATOM      1  C   UNL     1     -44.292 -16.344 -23.982  0.00  0.00    +0.000 C 
ATOM      2  C   UNL     1     -44.125 -15.582 -25.307  0.00  0.00    +0.000 C 
ATOM      3  C   UNL     1     -44.502 -16.531 -26.450  0.00  0.00    +0.000 C 
ATOM      4  C   UNL     1     -44.799 -17.796 -25.755  0.00  0.00    +0.000 C 
ATOM      5  C   UNL     1     -42.965 -16.339 -23.235  0.00  0.00    +0.000 C 
ATOM      6  N   UNL     1     -44.651 -17.708 -24.353  0.00  0.00    +0.000 N 
ATOM      7  O   UNL     1     -45.162 -18.848 -26.346  0.00  0.00    +0.000 OA
ENDROOT
BRANCH   1   8
ATOM      8  C   UNL     1     -45.385 -15.696 -23.172  0.00  0.00    +0.000 C 
ATOM      9  N   UNL     1     -45.271 -15.635 -21.746  0.00  0.00    +0.000 NA
ATOM     10  O   UNL     1     -46.427 -15.265 -23.739  0.00  0.00    +0.000 OA
BRANCH   9  16
ATOM     11  C   UNL     1     -47.131 -11.559 -19.538  0.00  0.00    +0.000 C 
ATOM     12  C   UNL     1     -47.244 -13.057 -19.764  0.00  0.00    +0.000 C 
ATOM     13  C   UNL     1     -47.293 -13.803 -18.432  0.00  0.00    +0.000 C 
ATOM     14  C   UNL     1     -47.485 -15.298 -18.674  0.00  0.00    +0.000 C 
ATOM     15  C   UNL     1     -46.363 -15.848 -19.551  0.00  0.00    +0.000 C 
ATOM     16  C   UNL     1     -46.319 -15.098 -20.886  0.00  0.00    +0.000 C 
ATOM     17  C   UNL     1     -46.119 -13.591 -20.666  0.00  0.00    +0.000 C 
ATOM     18  C   UNL     1     -44.732 -13.281 -20.100  0.00  0.00    +0.000 C 
ENDBRANCH   9  16
ENDBRANCH   1   8
BRANCH   6  19
ATOM     19  C   UNL     1     -44.982 -18.775 -23.410  0.00  0.00    +0.000 C 
BRANCH  19  20
ATOM     20  C   UNL     1     -43.743 -19.587 -23.048  0.00  0.00    +0.000 C 
BRANCH  20  21
ATOM     21  C   UNL     1     -43.449 -19.514 -21.588  0.00  0.00    +0.000 A 
ATOM     22  C   UNL     1     -44.408 -19.022 -20.692  0.00  0.00    +0.000 A 
ATOM     23  C   UNL     1     -44.122 -18.959 -19.326  0.00  0.00    +0.000 A 
ATOM     24  C   UNL     1     -42.878 -19.389 -18.851  0.00  0.00    +0.000 A 
ATOM     25  C   UNL     1     -41.923 -19.887 -19.743  0.00  0.00    +0.000 A 
ATOM     26  C   UNL     1     -42.209 -19.951 -21.110  0.00  0.00    +0.000 A 
ATOM     27 CL   UNL     1     -42.519 -19.308 -17.140  0.00  0.00    +0.000 Cl
ENDBRANCH  20  21
ENDBRANCH  19  20
ENDBRANCH   6  19
TORSDOF 5
ENDMDL
