MODEL 1
REMARK VINA RESULT:      -7.7      0.000      0.000
REMARK  Name = ZINC000217755306
REMARK  10 active torsions:
REMARK  status: ('A' for Active; 'I' for Inactive)
REMARK    1  A    between atoms: C_1  and  C_2
REMARK    2  A    between atoms: C_1  and  C_15
REMARK    3  A    between atoms: C_1  and  C_25
REMARK    4  A    between atoms: C_3  and  O_4
REMARK    5  A    between atoms: C_25  and  C_27
REMARK    6  A    between atoms: N_28  and  C_30
REMARK    7  A    between atoms: C_30  and  C_31
REMARK    8  A    between atoms: C_31  and  C_32
REMARK    9  A    between atoms: C_35  and  O_36
REMARK   10  A    between atoms: C_37  and  O_38
REMARK                            x       y       z     vdW  Elec       q    Type
REMARK                         _______ _______ _______ _____ _____    ______ ____
ROOT
ATOM      1  C   UNL     1     -46.048  -5.651 -30.076  0.00  0.00    +0.000 C 
ENDROOT
BRANCH   1   2
ATOM      2  C   UNL     1     -45.071  -4.677 -30.687  0.00  0.00    +0.000 A 
ATOM      3  C   UNL     1     -43.741  -5.072 -30.863  0.00  0.00    +0.000 A 
ATOM      4  N   UNL     1     -42.840  -4.210 -31.394  0.00  0.00    +0.000 NA
ATOM      5  C   UNL     1     -43.196  -2.955 -31.763  0.00  0.00    +0.000 A 
ATOM      6  C   UNL     1     -42.231  -2.102 -32.304  0.00  0.00    +0.000 A 
ATOM      7  C   UNL     1     -42.592  -0.812 -32.687  0.00  0.00    +0.000 A 
ATOM      8  C   UNL     1     -43.908  -0.386 -32.527  0.00  0.00    +0.000 A 
ATOM      9  C   UNL     1     -44.850  -1.262 -31.984  0.00  0.00    +0.000 A 
ATOM     10  N   UNL     1     -44.495  -2.528 -31.608  0.00  0.00    +0.000 N 
ATOM     11  C   UNL     1     -45.435  -3.372 -31.077  0.00  0.00    +0.000 A 
ATOM     12  O   UNL     1     -46.631  -2.985 -30.942  0.00  0.00    +0.000 OA
BRANCH   3  13
ATOM     13  O   UNL     1     -43.328  -6.348 -30.499  0.00  0.00    +0.000 OA
ATOM     14  H   UNL     1     -43.478  -7.072 -31.076  0.00  0.00    +0.000 HD
ENDBRANCH   3  13
ENDBRANCH   1   2
BRANCH   1  15
ATOM     15  C   UNL     1     -46.399  -5.323 -28.645  0.00  0.00    +0.000 A 
ATOM     16  C   UNL     1     -47.250  -4.249 -28.357  0.00  0.00    +0.000 A 
ATOM     17  C   UNL     1     -47.581  -3.955 -27.034  0.00  0.00    +0.000 A 
ATOM     18  N   UNL     1     -47.081  -4.709 -26.020  0.00  0.00    +0.000 NA
ATOM     19  C   UNL     1     -46.255  -5.762 -26.257  0.00  0.00    +0.000 A 
ATOM     20  C   UNL     1     -45.768  -6.518 -25.187  0.00  0.00    +0.000 A 
ATOM     21  C   UNL     1     -44.922  -7.605 -25.425  0.00  0.00    +0.000 A 
ATOM     22  C   UNL     1     -44.562  -7.942 -26.733  0.00  0.00    +0.000 A 
ATOM     23  C   UNL     1     -45.045  -7.191 -27.808  0.00  0.00    +0.000 A 
ATOM     24  C   UNL     1     -45.893  -6.097 -27.583  0.00  0.00    +0.000 A 
ENDBRANCH   1  15
BRANCH   1  25
ATOM     25  C   UNL     1     -47.263  -5.923 -30.959  0.00  0.00    +0.000 C 
BRANCH  25  27
ATOM     26  O   UNL     1     -47.211  -7.779 -32.450  0.00  0.00    +0.000 OA
ATOM     27  C   UNL     1     -47.373  -7.378 -31.266  0.00  0.00    +0.000 C 
ATOM     28  N   UNL     1     -47.615  -8.307 -30.208  0.00  0.00    +0.000 N 
ATOM     29  H   UNL     1     -47.728  -7.962 -29.293  0.00  0.00    +0.000 HD
BRANCH  28  30
ATOM     30  C   UNL     1     -47.700  -9.742 -30.429  0.00  0.00    +0.000 C 
BRANCH  30  31
ATOM     31  C   UNL     1     -46.338 -10.384 -30.220  0.00  0.00    +0.000 C 
BRANCH  31  32
ATOM     32  C   UNL     1     -46.369 -11.312 -29.055  0.00  0.00    +0.000 A 
ATOM     33  C   UNL     1     -46.243 -12.694 -29.241  0.00  0.00    +0.000 A 
ATOM     34  C   UNL     1     -46.258 -13.555 -28.140  0.00  0.00    +0.000 A 
ATOM     35  C   UNL     1     -46.395 -13.036 -26.848  0.00  0.00    +0.000 A 
ATOM     36  C   UNL     1     -46.516 -11.654 -26.659  0.00  0.00    +0.000 A 
ATOM     37  C   UNL     1     -46.500 -10.795 -27.762  0.00  0.00    +0.000 A 
BRANCH  36  38
ATOM     38  O   UNL     1     -46.650 -11.128 -25.380  0.00  0.00    +0.000 OA
ATOM     39  H   UNL     1     -45.982 -10.570 -25.031  0.00  0.00    +0.000 HD
ENDBRANCH  36  38
BRANCH  35  40
ATOM     40  O   UNL     1     -46.411 -13.899 -25.759  0.00  0.00    +0.000 OA
ATOM     41  H   UNL     1     -46.855 -14.722 -25.820  0.00  0.00    +0.000 HD
ENDBRANCH  35  40
ENDBRANCH  31  32
ENDBRANCH  30  31
ENDBRANCH  28  30
ENDBRANCH  25  27
ENDBRANCH   1  25
TORSDOF 10
ENDMDL
MODEL 2
REMARK VINA RESULT:      -7.7      0.836      1.796
REMARK  Name = ZINC000217755306
REMARK  10 active torsions:
REMARK  status: ('A' for Active; 'I' for Inactive)
REMARK    1  A    between atoms: C_1  and  C_2
REMARK    2  A    between atoms: C_1  and  C_15
REMARK    3  A    between atoms: C_1  and  C_25
REMARK    4  A    between atoms: C_3  and  O_4
REMARK    5  A    between atoms: C_25  and  C_27
REMARK    6  A    between atoms: N_28  and  C_30
REMARK    7  A    between atoms: C_30  and  C_31
REMARK    8  A    between atoms: C_31  and  C_32
REMARK    9  A    between atoms: C_35  and  O_36
REMARK   10  A    between atoms: C_37  and  O_38
REMARK                            x       y       z     vdW  Elec       q    Type
REMARK                         _______ _______ _______ _____ _____    ______ ____
ROOT
ATOM      1  C   UNL     1     -46.033  -5.715 -30.311  0.00  0.00    +0.000 C 
ENDROOT
BRANCH   1   2
ATOM      2  C   UNL     1     -45.521  -4.392 -30.825  0.00  0.00    +0.000 A 
ATOM      3  C   UNL     1     -46.408  -3.315 -30.927  0.00  0.00    +0.000 A 
ATOM      4  N   UNL     1     -45.977  -2.121 -31.402  0.00  0.00    +0.000 NA
ATOM      5  C   UNL     1     -44.690  -1.938 -31.787  0.00  0.00    +0.000 A 
ATOM      6  C   UNL     1     -44.294  -0.689 -32.271  0.00  0.00    +0.000 A 
ATOM      7  C   UNL     1     -42.973  -0.494 -32.667  0.00  0.00    +0.000 A 
ATOM      8  C   UNL     1     -42.062  -1.544 -32.576  0.00  0.00    +0.000 A 
ATOM      9  C   UNL     1     -42.488  -2.780 -32.088  0.00  0.00    +0.000 A 
ATOM     10  N   UNL     1     -43.785  -2.971 -31.700  0.00  0.00    +0.000 N 
ATOM     11  C   UNL     1     -44.184  -4.192 -31.223  0.00  0.00    +0.000 A 
ATOM     12  O   UNL     1     -43.352  -5.140 -31.134  0.00  0.00    +0.000 OA
BRANCH   3  13
ATOM     13  O   UNL     1     -47.737  -3.455 -30.545  0.00  0.00    +0.000 OA
ATOM     14  H   UNL     1     -48.395  -2.907 -30.926  0.00  0.00    +0.000 HD
ENDBRANCH   3  13
ENDBRANCH   1   2
BRANCH   1  15
ATOM     15  C   UNL     1     -45.998  -5.823 -28.806  0.00  0.00    +0.000 A 
ATOM     16  C   UNL     1     -46.823  -5.006 -28.022  0.00  0.00    +0.000 A 
ATOM     17  C   UNL     1     -46.796  -5.116 -26.632  0.00  0.00    +0.000 A 
ATOM     18  N   UNL     1     -45.972  -6.015 -26.032  0.00  0.00    +0.000 NA
ATOM     19  C   UNL     1     -45.159  -6.829 -26.757  0.00  0.00    +0.000 A 
ATOM     20  C   UNL     1     -44.331  -7.746 -26.102  0.00  0.00    +0.000 A 
ATOM     21  C   UNL     1     -43.496  -8.588 -26.843  0.00  0.00    +0.000 A 
ATOM     22  C   UNL     1     -43.487  -8.518 -28.239  0.00  0.00    +0.000 A 
ATOM     23  C   UNL     1     -44.312  -7.605 -28.900  0.00  0.00    +0.000 A 
ATOM     24  C   UNL     1     -45.154  -6.752 -28.170  0.00  0.00    +0.000 A 
ENDBRANCH   1  15
BRANCH   1  25
ATOM     25  C   UNL     1     -47.369  -6.127 -30.926  0.00  0.00    +0.000 C 
BRANCH  25  27
ATOM     26  O   UNL     1     -47.154  -7.928 -32.467  0.00  0.00    +0.000 OA
ATOM     27  C   UNL     1     -47.361  -7.576 -31.275  0.00  0.00    +0.000 C 
ATOM     28  N   UNL     1     -47.543  -8.551 -30.246  0.00  0.00    +0.000 N 
ATOM     29  H   UNL     1     -47.695  -8.243 -29.324  0.00  0.00    +0.000 HD
BRANCH  28  30
ATOM     30  C   UNL     1     -47.514  -9.982 -30.509  0.00  0.00    +0.000 C 
BRANCH  30  31
ATOM     31  C   UNL     1     -46.142 -10.545 -30.176  0.00  0.00    +0.000 C 
BRANCH  31  32
ATOM     32  C   UNL     1     -46.214 -11.425 -28.976  0.00  0.00    +0.000 A 
ATOM     33  C   UNL     1     -46.089 -12.814 -29.102  0.00  0.00    +0.000 A 
ATOM     34  C   UNL     1     -46.141 -13.629 -27.968  0.00  0.00    +0.000 A 
ATOM     35  C   UNL     1     -46.317 -13.058 -26.703  0.00  0.00    +0.000 A 
ATOM     36  C   UNL     1     -46.436 -11.668 -26.574  0.00  0.00    +0.000 A 
ATOM     37  C   UNL     1     -46.382 -10.855 -27.710  0.00  0.00    +0.000 A 
BRANCH  36  38
ATOM     38  O   UNL     1     -46.607 -11.090 -25.323  0.00  0.00    +0.000 OA
ATOM     39  H   UNL     1     -47.405 -11.225 -24.849  0.00  0.00    +0.000 HD
ENDBRANCH  36  38
BRANCH  35  40
ATOM     40  O   UNL     1     -46.370 -13.875 -25.581  0.00  0.00    +0.000 OA
ATOM     41  H   UNL     1     -46.668 -14.760 -25.660  0.00  0.00    +0.000 HD
ENDBRANCH  35  40
ENDBRANCH  31  32
ENDBRANCH  30  31
ENDBRANCH  28  30
ENDBRANCH  25  27
ENDBRANCH   1  25
TORSDOF 10
ENDMDL
MODEL 3
REMARK VINA RESULT:      -7.3      4.130      5.740
REMARK  Name = ZINC000217755306
REMARK  10 active torsions:
REMARK  status: ('A' for Active; 'I' for Inactive)
REMARK    1  A    between atoms: C_1  and  C_2
REMARK    2  A    between atoms: C_1  and  C_15
REMARK    3  A    between atoms: C_1  and  C_25
REMARK    4  A    between atoms: C_3  and  O_4
REMARK    5  A    between atoms: C_25  and  C_27
REMARK    6  A    between atoms: N_28  and  C_30
REMARK    7  A    between atoms: C_30  and  C_31
REMARK    8  A    between atoms: C_31  and  C_32
REMARK    9  A    between atoms: C_35  and  O_36
REMARK   10  A    between atoms: C_37  and  O_38
REMARK                            x       y       z     vdW  Elec       q    Type
REMARK                         _______ _______ _______ _____ _____    ______ ____
ROOT
ATOM      1  C   UNL     1     -45.419  -6.356 -33.374  0.00  0.00    +0.000 C 
ENDROOT
BRANCH   1   2
ATOM      2  C   UNL     1     -44.526  -5.163 -33.137  0.00  0.00    +0.000 A 
ATOM      3  C   UNL     1     -43.197  -5.375 -32.757  0.00  0.00    +0.000 A 
ATOM      4  N   UNL     1     -42.380  -4.319 -32.522  0.00  0.00    +0.000 NA
ATOM      5  C   UNL     1     -42.822  -3.044 -32.645  0.00  0.00    +0.000 A 
ATOM      6  C   UNL     1     -41.943  -1.989 -32.390  0.00  0.00    +0.000 A 
ATOM      7  C   UNL     1     -42.390  -0.676 -32.517  0.00  0.00    +0.000 A 
ATOM      8  C   UNL     1     -43.708  -0.428 -32.896  0.00  0.00    +0.000 A 
ATOM      9  C   UNL     1     -44.562  -1.503 -33.144  0.00  0.00    +0.000 A 
ATOM     10  N   UNL     1     -44.122  -2.792 -33.019  0.00  0.00    +0.000 N 
ATOM     11  C   UNL     1     -44.977  -3.833 -33.268  0.00  0.00    +0.000 A 
ATOM     12  O   UNL     1     -46.169  -3.604 -33.620  0.00  0.00    +0.000 OA
BRANCH   3  13
ATOM     13  O   UNL     1     -42.699  -6.665 -32.617  0.00  0.00    +0.000 OA
ATOM     14  H   UNL     1     -42.133  -7.023 -33.273  0.00  0.00    +0.000 HD
ENDBRANCH   3  13
ENDBRANCH   1   2
BRANCH   1  15
ATOM     15  C   UNL     1     -46.073  -6.869 -32.115  0.00  0.00    +0.000 A 
ATOM     16  C   UNL     1     -46.721  -5.982 -31.247  0.00  0.00    +0.000 A 
ATOM     17  C   UNL     1     -47.334  -6.461 -30.088  0.00  0.00    +0.000 A 
ATOM     18  N   UNL     1     -47.307  -7.788 -29.799  0.00  0.00    +0.000 NA
ATOM     19  C   UNL     1     -46.692  -8.683 -30.617  0.00  0.00    +0.000 A 
ATOM     20  C   UNL     1     -46.692 -10.041 -30.287  0.00  0.00    +0.000 A 
ATOM     21  C   UNL     1     -46.066 -10.966 -31.127  0.00  0.00    +0.000 A 
ATOM     22  C   UNL     1     -45.438 -10.537 -32.300  0.00  0.00    +0.000 A 
ATOM     23  C   UNL     1     -45.434  -9.181 -32.637  0.00  0.00    +0.000 A 
ATOM     24  C   UNL     1     -46.058  -8.242 -31.802  0.00  0.00    +0.000 A 
ENDBRANCH   1  15
BRANCH   1  25
ATOM     25  C   UNL     1     -46.390  -6.164 -34.537  0.00  0.00    +0.000 C 
BRANCH  25  27
ATOM     26  O   UNL     1     -44.847  -7.415 -35.849  0.00  0.00    +0.000 OA
ATOM     27  C   UNL     1     -46.046  -7.079 -35.663  0.00  0.00    +0.000 C 
ATOM     28  N   UNL     1     -47.087  -7.600 -36.493  0.00  0.00    +0.000 N 
ATOM     29  H   UNL     1     -48.015  -7.324 -36.316  0.00  0.00    +0.000 HD
BRANCH  28  30
ATOM     30  C   UNL     1     -46.829  -8.522 -37.588  0.00  0.00    +0.000 C 
BRANCH  30  31
ATOM     31  C   UNL     1     -47.756  -9.722 -37.489  0.00  0.00    +0.000 C 
BRANCH  31  32
ATOM     32  C   UNL     1     -47.018 -10.916 -36.989  0.00  0.00    +0.000 A 
ATOM     33  C   UNL     1     -45.810 -10.768 -36.297  0.00  0.00    +0.000 A 
ATOM     34  C   UNL     1     -45.133 -11.894 -35.819  0.00  0.00    +0.000 A 
ATOM     35  C   UNL     1     -45.664 -13.171 -36.029  0.00  0.00    +0.000 A 
ATOM     36  C   UNL     1     -46.875 -13.321 -36.715  0.00  0.00    +0.000 A 
ATOM     37  C   UNL     1     -47.551 -12.193 -37.192  0.00  0.00    +0.000 A 
BRANCH  36  38
ATOM     38  O   UNL     1     -47.413 -14.584 -36.926  0.00  0.00    +0.000 OA
ATOM     39  H   UNL     1     -46.929 -15.347 -36.673  0.00  0.00    +0.000 HD
ENDBRANCH  36  38
BRANCH  35  40
ATOM     40  O   UNL     1     -44.983 -14.284 -35.552  0.00  0.00    +0.000 OA
ATOM     41  H   UNL     1     -45.189 -14.632 -34.706  0.00  0.00    +0.000 HD
ENDBRANCH  35  40
ENDBRANCH  31  32
ENDBRANCH  30  31
ENDBRANCH  28  30
ENDBRANCH  25  27
ENDBRANCH   1  25
TORSDOF 10
ENDMDL
