MODEL 1
REMARK VINA RESULT:      -6.9      0.000      0.000
REMARK  Name = ZINC000006870764 PubChem-92318821
REMARK  6 active torsions:
REMARK  status: ('A' for Active; 'I' for Inactive)
REMARK    1  A    between atoms: C_2  and  O_22
REMARK    2  A    between atoms: C_3  and  O_27
REMARK    3  A    between atoms: C_5  and  C_8
REMARK    4  A    between atoms: C_10  and  C_13
REMARK    5  A    between atoms: C_14  and  O_26
REMARK    6  A    between atoms: C_15  and  O_25
REMARK                            x       y       z     vdW  Elec       q    Type
REMARK                         _______ _______ _______ _____ _____    ______ ____
ROOT
ATOM      1  C   UNL     1     -47.153  -3.562 -26.225  0.00  0.00    +0.000 C 
ATOM      2  C   UNL     1     -46.855  -5.379 -27.996  0.00  0.00    +0.000 C 
ATOM      3  C   UNL     1     -46.888  -4.949 -30.402  0.00  0.00    +0.000 C 
ATOM      4  C   UNL     1     -47.274  -6.414 -30.655  0.00  0.00    +0.000 C 
ATOM      5  C   UNL     1     -46.771  -7.297 -29.558  0.00  0.00    +0.000 C 
ATOM      6  O   UNL     1     -47.290  -2.644 -27.078  0.00  0.00    +0.000 OA
ATOM      7  O   UNL     1     -46.505  -8.504 -29.789  0.00  0.00    +0.000 OA
ATOM      8  N   UNL     1     -46.931  -4.918 -26.643  0.00  0.00    +0.000 NA
ATOM      9  N   UNL     1     -47.027  -4.558 -28.994  0.00  0.00    +0.000 NA
ATOM     10  N   UNL     1     -46.615  -6.767 -28.244  0.00  0.00    +0.000 NA
ENDROOT
BRANCH   1  14
ATOM     11  C   UNL     1     -47.341  -2.630 -22.037  0.00  0.00    +0.000 A 
ATOM     12  C   UNL     1     -47.222  -3.977 -22.457  0.00  0.00    +0.000 A 
ATOM     13  C   UNL     1     -47.162  -4.263 -23.832  0.00  0.00    +0.000 A 
ATOM     14  C   UNL     1     -47.217  -3.242 -24.788  0.00  0.00    +0.000 A 
ATOM     15  C   UNL     1     -47.335  -1.916 -24.361  0.00  0.00    +0.000 A 
ATOM     16  C   UNL     1     -47.395  -1.616 -23.000  0.00  0.00    +0.000 A 
BRANCH  11  18
ATOM     17  C   UNL     1     -46.317  -1.722 -19.941  0.00  0.00    +0.000 C 
ATOM     18  O   UNL     1     -47.409  -2.234 -20.692  0.00  0.00    +0.000 OA
ENDBRANCH  11  18
BRANCH  12  20
ATOM     19  C   UNL     1     -45.945  -5.487 -20.962  0.00  0.00    +0.000 C 
ATOM     20  O   UNL     1     -47.164  -5.016 -21.522  0.00  0.00    +0.000 OA
ENDBRANCH  12  20
ENDBRANCH   1  14
BRANCH   3  21
ATOM     21  C   UNL     1     -45.512  -4.626 -30.918  0.00  0.00    +0.000 A 
ATOM     22  C   UNL     1     -45.354  -3.654 -31.927  0.00  0.00    +0.000 A 
ATOM     23  C   UNL     1     -44.049  -3.351 -32.398  0.00  0.00    +0.000 A 
ATOM     24  C   UNL     1     -42.944  -4.021 -31.847  0.00  0.00    +0.000 A 
ATOM     25  C   UNL     1     -43.114  -4.974 -30.846  0.00  0.00    +0.000 A 
ATOM     26  C   UNL     1     -44.391  -5.274 -30.384  0.00  0.00    +0.000 A 
BRANCH  23  28
ATOM     27  C   UNL     1     -43.727  -1.005 -33.134  0.00  0.00    +0.000 C 
ATOM     28  O   UNL     1     -43.857  -2.395 -33.401  0.00  0.00    +0.000 OA
ENDBRANCH  23  28
BRANCH  22  30
ATOM     29  C   UNL     1     -47.165  -3.362 -33.639  0.00  0.00    +0.000 C 
ATOM     30  O   UNL     1     -46.514  -3.030 -32.420  0.00  0.00    +0.000 OA
ENDBRANCH  22  30
ENDBRANCH   3  21
TORSDOF 6
ENDMDL
MODEL 2
REMARK VINA RESULT:      -6.4     11.058     15.028
REMARK  Name = ZINC000006870764 PubChem-92318821
REMARK  6 active torsions:
REMARK  status: ('A' for Active; 'I' for Inactive)
REMARK    1  A    between atoms: C_2  and  O_22
REMARK    2  A    between atoms: C_3  and  O_27
REMARK    3  A    between atoms: C_5  and  C_8
REMARK    4  A    between atoms: C_10  and  C_13
REMARK    5  A    between atoms: C_14  and  O_26
REMARK    6  A    between atoms: C_15  and  O_25
REMARK                            x       y       z     vdW  Elec       q    Type
REMARK                         _______ _______ _______ _____ _____    ______ ____
ROOT
ATOM      1  C   UNL     1     -45.055 -14.630 -24.957  0.00  0.00    +0.000 C 
ATOM      2  C   UNL     1     -45.065 -17.183 -24.847  0.00  0.00    +0.000 C 
ATOM      3  C   UNL     1     -43.609 -18.485 -23.379  0.00  0.00    +0.000 C 
ATOM      4  C   UNL     1     -43.760 -19.698 -24.309  0.00  0.00    +0.000 C 
ATOM      5  C   UNL     1     -45.064 -19.650 -25.041  0.00  0.00    +0.000 C 
ATOM      6  O   UNL     1     -44.142 -14.519 -24.094  0.00  0.00    +0.000 OA
ATOM      7  O   UNL     1     -45.618 -20.715 -25.416  0.00  0.00    +0.000 OA
ATOM      8  N   UNL     1     -45.536 -15.926 -25.346  0.00  0.00    +0.000 NA
ATOM      9  N   UNL     1     -44.089 -17.238 -23.986  0.00  0.00    +0.000 NA
ATOM     10  N   UNL     1     -45.663 -18.389 -25.330  0.00  0.00    +0.000 NA
ENDROOT
BRANCH   1  14
ATOM     11  C   UNL     1     -46.743 -11.108 -26.743  0.00  0.00    +0.000 A 
ATOM     12  C   UNL     1     -46.774 -12.340 -27.441  0.00  0.00    +0.000 A 
ATOM     13  C   UNL     1     -46.216 -13.482 -26.841  0.00  0.00    +0.000 A 
ATOM     14  C   UNL     1     -45.634 -13.422 -25.569  0.00  0.00    +0.000 A 
ATOM     15  C   UNL     1     -45.609 -12.201 -24.890  0.00  0.00    +0.000 A 
ATOM     16  C   UNL     1     -46.158 -11.058 -25.472  0.00  0.00    +0.000 A 
BRANCH  11  18
ATOM     17  C   UNL     1     -46.737  -9.191 -28.354  0.00  0.00    +0.000 C 
ATOM     18  O   UNL     1     -47.270  -9.910 -27.250  0.00  0.00    +0.000 OA
ENDBRANCH  11  18
BRANCH  12  20
ATOM     19  C   UNL     1     -46.590 -12.641 -29.895  0.00  0.00    +0.000 C 
ATOM     20  O   UNL     1     -47.351 -12.427 -28.713  0.00  0.00    +0.000 OA
ENDBRANCH  12  20
ENDBRANCH   1  14
BRANCH   3  21
ATOM     21  C   UNL     1     -44.249 -18.713 -22.037  0.00  0.00    +0.000 A 
ATOM     22  C   UNL     1     -43.479 -19.223 -20.972  0.00  0.00    +0.000 A 
ATOM     23  C   UNL     1     -44.093 -19.424 -19.708  0.00  0.00    +0.000 A 
ATOM     24  C   UNL     1     -45.452 -19.107 -19.543  0.00  0.00    +0.000 A 
ATOM     25  C   UNL     1     -46.200 -18.599 -20.601  0.00  0.00    +0.000 A 
ATOM     26  C   UNL     1     -45.601 -18.402 -21.842  0.00  0.00    +0.000 A 
BRANCH  23  28
ATOM     27  C   UNL     1     -42.570 -19.116 -17.775  0.00  0.00    +0.000 C 
ATOM     28  O   UNL     1     -43.359 -19.932 -18.630  0.00  0.00    +0.000 OA
ENDBRANCH  23  28
BRANCH  22  30
ATOM     29  C   UNL     1     -41.586 -20.812 -21.401  0.00  0.00    +0.000 C 
ATOM     30  O   UNL     1     -42.125 -19.511 -21.224  0.00  0.00    +0.000 OA
ENDBRANCH  22  30
ENDBRANCH   3  21
TORSDOF 6
ENDMDL
MODEL 3
REMARK VINA RESULT:      -6.1      9.475     13.519
REMARK  Name = ZINC000006870764 PubChem-92318821
REMARK  6 active torsions:
REMARK  status: ('A' for Active; 'I' for Inactive)
REMARK    1  A    between atoms: C_2  and  O_22
REMARK    2  A    between atoms: C_3  and  O_27
REMARK    3  A    between atoms: C_5  and  C_8
REMARK    4  A    between atoms: C_10  and  C_13
REMARK    5  A    between atoms: C_14  and  O_26
REMARK    6  A    between atoms: C_15  and  O_25
REMARK                            x       y       z     vdW  Elec       q    Type
REMARK                         _______ _______ _______ _____ _____    ______ ____
ROOT
ATOM      1  C   UNL     1     -45.515 -13.507 -24.739  0.00  0.00    +0.000 C 
ATOM      2  C   UNL     1     -45.637 -16.052 -24.545  0.00  0.00    +0.000 C 
ATOM      3  C   UNL     1     -44.413 -17.347 -22.873  0.00  0.00    +0.000 C 
ATOM      4  C   UNL     1     -44.502 -18.589 -23.774  0.00  0.00    +0.000 C 
ATOM      5  C   UNL     1     -45.709 -18.523 -24.655  0.00  0.00    +0.000 C 
ATOM      6  O   UNL     1     -44.705 -13.395 -23.779  0.00  0.00    +0.000 OA
ATOM      7  O   UNL     1     -46.256 -19.582 -25.056  0.00  0.00    +0.000 OA
ATOM      8  N   UNL     1     -45.998 -14.799 -25.138  0.00  0.00    +0.000 NA
ATOM      9  N   UNL     1     -44.770 -16.108 -23.574  0.00  0.00    +0.000 NA
ATOM     10  N   UNL     1     -46.221 -17.254 -25.054  0.00  0.00    +0.000 NA
ENDROOT
BRANCH   1  14
ATOM     11  C   UNL     1     -46.846  -9.997 -26.826  0.00  0.00    +0.000 A 
ATOM     12  C   UNL     1     -46.309  -9.884 -25.519  0.00  0.00    +0.000 A 
ATOM     13  C   UNL     1     -45.879 -11.044 -24.852  0.00  0.00    +0.000 A 
ATOM     14  C   UNL     1     -45.972 -12.304 -25.456  0.00  0.00    +0.000 A 
ATOM     15  C   UNL     1     -46.502 -12.403 -26.745  0.00  0.00    +0.000 A 
ATOM     16  C   UNL     1     -46.933 -11.261 -27.421  0.00  0.00    +0.000 A 
BRANCH  11  18
ATOM     17  C   UNL     1     -47.342  -8.859 -28.999  0.00  0.00    +0.000 C 
ATOM     18  O   UNL     1     -47.304  -8.905 -27.580  0.00  0.00    +0.000 OA
ENDBRANCH  11  18
BRANCH  12  20
ATOM     19  C   UNL     1     -44.968  -8.084 -24.466  0.00  0.00    +0.000 C 
ATOM     20  O   UNL     1     -46.206  -8.636 -24.895  0.00  0.00    +0.000 OA
ENDBRANCH  12  20
ENDBRANCH   1  14
BRANCH   3  21
ATOM     21  C   UNL     1     -45.213 -17.502 -21.609  0.00  0.00    +0.000 A 
ATOM     22  C   UNL     1     -45.304 -16.426 -20.702  0.00  0.00    +0.000 A 
ATOM     23  C   UNL     1     -46.070 -16.581 -19.518  0.00  0.00    +0.000 A 
ATOM     24  C   UNL     1     -46.725 -17.800 -19.275  0.00  0.00    +0.000 A 
ATOM     25  C   UNL     1     -46.631 -18.854 -20.181  0.00  0.00    +0.000 A 
ATOM     26  C   UNL     1     -45.879 -18.704 -21.342  0.00  0.00    +0.000 A 
BRANCH  23  28
ATOM     27  C   UNL     1     -47.406 -14.877 -18.308  0.00  0.00    +0.000 C 
ATOM     28  O   UNL     1     -46.179 -15.535 -18.595  0.00  0.00    +0.000 OA
ENDBRANCH  23  28
BRANCH  22  30
ATOM     29  C   UNL     1     -43.409 -14.805 -20.423  0.00  0.00    +0.000 C 
ATOM     30  O   UNL     1     -44.619 -15.240 -21.026  0.00  0.00    +0.000 OA
ENDBRANCH  22  30
ENDBRANCH   3  21
TORSDOF 6
ENDMDL
