MODEL 1
REMARK VINA RESULT:      -7.2      0.000      0.000
REMARK  Name = ZINC000031810633
REMARK  1 active torsions:
REMARK  status: ('A' for Active; 'I' for Inactive)
REMARK    1  A    between atoms: C_7  and  C_24
REMARK                            x       y       z     vdW  Elec       q    Type
REMARK                         _______ _______ _______ _____ _____    ______ ____
ROOT
ATOM      1  C   UNL     1     -47.327  -3.889 -34.044  0.00  0.00    +0.000 C 
ATOM      2  C   UNL     1     -46.596  -5.162 -33.796  0.00  0.00    +0.000 A 
ATOM      3  N   UNL     1     -46.717  -6.250 -34.576  0.00  0.00    +0.000 NA
ATOM      4  N   UNL     1     -45.938  -7.193 -34.072  0.00  0.00    +0.000 N 
ATOM      5  C   UNL     1     -45.286  -6.717 -32.987  0.00  0.00    +0.000 A 
ATOM      6  C   UNL     1     -45.703  -5.405 -32.766  0.00  0.00    +0.000 A 
ATOM      7  C   UNL     1     -45.306  -4.394 -31.725  0.00  0.00    +0.000 C 
ATOM      8  S   UNL     1     -44.789  -5.074 -30.119  0.00  0.00    +0.000 S 
ATOM      9  C   UNL     1     -43.234  -5.702 -30.791  0.00  0.00    +0.000 C 
ATOM     10  C   UNL     1     -43.407  -7.109 -31.226  0.00  0.00    +0.000 C 
ATOM     11  O   UNL     1     -42.710  -7.997 -30.672  0.00  0.00    +0.000 OA
ATOM     12  N   UNL     1     -44.306  -7.490 -32.272  0.00  0.00    +0.000 N 
ATOM     13  H   UNL     1     -44.245  -8.433 -32.547  0.00  0.00    +0.000 HD
ATOM     14  C   UNL     1     -45.798  -8.486 -34.680  0.00  0.00    +0.000 A 
ATOM     15  N   UNL     1     -45.798  -8.605 -36.043  0.00  0.00    +0.000 NA
ATOM     16  C   UNL     1     -45.695  -9.828 -36.655  0.00  0.00    +0.000 A 
ATOM     17  N   UNL     1     -45.604 -10.971 -35.911  0.00  0.00    +0.000 NA
ATOM     18  C   UNL     1     -45.619 -10.855 -34.562  0.00  0.00    +0.000 A 
ATOM     19  N   UNL     1     -45.598 -11.858 -33.676  0.00  0.00    +0.000 N 
ATOM     20  C   UNL     1     -45.695 -11.201 -32.487  0.00  0.00    +0.000 A 
ATOM     21  N   UNL     1     -45.779  -9.847 -32.611  0.00  0.00    +0.000 NA
ATOM     22  C   UNL     1     -45.717  -9.663 -33.937  0.00  0.00    +0.000 A 
ATOM     23  H   UNL     1     -45.528 -12.826 -33.840  0.00  0.00    +0.000 HD
ENDROOT
BRANCH   7  24
ATOM     24  C   UNL     1     -44.463  -3.246 -32.214  0.00  0.00    +0.000 A 
ATOM     25  C   UNL     1     -43.568  -3.494 -33.262  0.00  0.00    +0.000 A 
ATOM     26  C   UNL     1     -42.761  -2.471 -33.765  0.00  0.00    +0.000 A 
ATOM     27  C   UNL     1     -42.845  -1.186 -33.223  0.00  0.00    +0.000 A 
ATOM     28  F   UNL     1     -42.063  -0.194 -33.711  0.00  0.00    +0.000 F 
ATOM     29  C   UNL     1     -43.736  -0.925 -32.179  0.00  0.00    +0.000 A 
ATOM     30  C   UNL     1     -44.545  -1.945 -31.672  0.00  0.00    +0.000 A 
ATOM     31  F   UNL     1     -45.400  -1.657 -30.660  0.00  0.00    +0.000 F 
ENDBRANCH   7  24
TORSDOF 1
ENDMDL
MODEL 2
REMARK VINA RESULT:      -6.7      4.808      7.314
REMARK  Name = ZINC000031810633
REMARK  1 active torsions:
REMARK  status: ('A' for Active; 'I' for Inactive)
REMARK    1  A    between atoms: C_7  and  C_24
REMARK                            x       y       z     vdW  Elec       q    Type
REMARK                         _______ _______ _______ _____ _____    ______ ____
ROOT
ATOM      1  C   UNL     1     -47.390  -4.473 -26.210  0.00  0.00    +0.000 C 
ATOM      2  C   UNL     1     -46.918  -4.726 -27.599  0.00  0.00    +0.000 A 
ATOM      3  N   UNL     1     -46.790  -3.761 -28.526  0.00  0.00    +0.000 NA
ATOM      4  N   UNL     1     -46.354  -4.328 -29.639  0.00  0.00    +0.000 N 
ATOM      5  C   UNL     1     -46.166  -5.652 -29.434  0.00  0.00    +0.000 A 
ATOM      6  C   UNL     1     -46.540  -5.950 -28.125  0.00  0.00    +0.000 A 
ATOM      7  C   UNL     1     -46.527  -7.242 -27.353  0.00  0.00    +0.000 C 
ATOM      8  S   UNL     1     -46.757  -8.754 -28.338  0.00  0.00    +0.000 S 
ATOM      9  C   UNL     1     -45.114  -8.624 -29.076  0.00  0.00    +0.000 C 
ATOM     10  C   UNL     1     -45.197  -7.885 -30.361  0.00  0.00    +0.000 C 
ATOM     11  O   UNL     1     -44.852  -8.478 -31.415  0.00  0.00    +0.000 OA
ATOM     12  N   UNL     1     -45.620  -6.520 -30.441  0.00  0.00    +0.000 N 
ATOM     13  H   UNL     1     -45.521  -6.110 -31.331  0.00  0.00    +0.000 HD
ATOM     14  C   UNL     1     -46.074  -3.578 -30.830  0.00  0.00    +0.000 A 
ATOM     15  N   UNL     1     -45.529  -2.327 -30.738  0.00  0.00    +0.000 NA
ATOM     16  C   UNL     1     -45.276  -1.572 -31.855  0.00  0.00    +0.000 A 
ATOM     17  N   UNL     1     -45.578  -2.051 -33.099  0.00  0.00    +0.000 NA
ATOM     18  C   UNL     1     -46.131  -3.284 -33.190  0.00  0.00    +0.000 A 
ATOM     19  N   UNL     1     -46.545  -3.891 -34.308  0.00  0.00    +0.000 N 
ATOM     20  C   UNL     1     -47.067  -5.055 -33.833  0.00  0.00    +0.000 A 
ATOM     21  N   UNL     1     -46.995  -5.180 -32.479  0.00  0.00    +0.000 NA
ATOM     22  C   UNL     1     -46.387  -4.046 -32.106  0.00  0.00    +0.000 A 
ATOM     23  H   UNL     1     -46.485  -3.578 -35.240  0.00  0.00    +0.000 HD
ENDROOT
BRANCH   7  24
ATOM     24  C   UNL     1     -45.477  -7.354 -26.279  0.00  0.00    +0.000 A 
ATOM     25  C   UNL     1     -44.159  -7.027 -26.620  0.00  0.00    +0.000 A 
ATOM     26  C   UNL     1     -43.139  -7.106 -25.669  0.00  0.00    +0.000 A 
ATOM     27  C   UNL     1     -43.431  -7.511 -24.364  0.00  0.00    +0.000 A 
ATOM     28  F   UNL     1     -42.442  -7.587 -23.442  0.00  0.00    +0.000 F 
ATOM     29  C   UNL     1     -44.743  -7.837 -24.011  0.00  0.00    +0.000 A 
ATOM     30  C   UNL     1     -45.767  -7.760 -24.959  0.00  0.00    +0.000 A 
ATOM     31  F   UNL     1     -47.029  -8.082 -24.582  0.00  0.00    +0.000 F 
ENDBRANCH   7  24
TORSDOF 1
ENDMDL
MODEL 3
REMARK VINA RESULT:      -6.7      2.527      3.411
REMARK  Name = ZINC000031810633
REMARK  1 active torsions:
REMARK  status: ('A' for Active; 'I' for Inactive)
REMARK    1  A    between atoms: C_7  and  C_24
REMARK                            x       y       z     vdW  Elec       q    Type
REMARK                         _______ _______ _______ _____ _____    ______ ____
ROOT
ATOM      1  C   UNL     1     -45.468  -6.489 -34.858  0.00  0.00    +0.000 C 
ATOM      2  C   UNL     1     -45.413  -7.079 -33.492  0.00  0.00    +0.000 A 
ATOM      3  N   UNL     1     -44.928  -8.305 -33.234  0.00  0.00    +0.000 NA
ATOM      4  N   UNL     1     -45.030  -8.511 -31.931  0.00  0.00    +0.000 N 
ATOM      5  C   UNL     1     -45.550  -7.414 -31.334  0.00  0.00    +0.000 A 
ATOM      6  C   UNL     1     -45.828  -6.469 -32.320  0.00  0.00    +0.000 A 
ATOM      7  C   UNL     1     -46.394  -5.077 -32.237  0.00  0.00    +0.000 C 
ATOM      8  S   UNL     1     -47.537  -4.769 -30.856  0.00  0.00    +0.000 S 
ATOM      9  C   UNL     1     -46.207  -4.816 -29.635  0.00  0.00    +0.000 C 
ATOM     10  C   UNL     1     -46.070  -6.191 -29.094  0.00  0.00    +0.000 C 
ATOM     11  O   UNL     1     -46.254  -6.370 -27.862  0.00  0.00    +0.000 OA
ATOM     12  N   UNL     1     -45.706  -7.310 -29.908  0.00  0.00    +0.000 N 
ATOM     13  H   UNL     1     -45.535  -8.143 -29.412  0.00  0.00    +0.000 HD
ATOM     14  C   UNL     1     -44.571  -9.716 -31.300  0.00  0.00    +0.000 A 
ATOM     15  N   UNL     1     -43.437 -10.334 -31.749  0.00  0.00    +0.000 NA
ATOM     16  C   UNL     1     -42.987 -11.502 -31.188  0.00  0.00    +0.000 A 
ATOM     17  N   UNL     1     -43.676 -12.091 -30.165  0.00  0.00    +0.000 NA
ATOM     18  C   UNL     1     -44.808 -11.487 -29.730  0.00  0.00    +0.000 A 
ATOM     19  N   UNL     1     -45.641 -11.942 -28.786  0.00  0.00    +0.000 N 
ATOM     20  C   UNL     1     -46.628 -11.004 -28.789  0.00  0.00    +0.000 A 
ATOM     21  N   UNL     1     -46.436 -10.005 -29.695  0.00  0.00    +0.000 NA
ATOM     22  C   UNL     1     -45.269 -10.337 -30.265  0.00  0.00    +0.000 A 
ATOM     23  H   UNL     1     -45.561 -12.749 -28.228  0.00  0.00    +0.000 HD
ENDROOT
BRANCH   7  24
ATOM     24  C   UNL     1     -45.421  -3.958 -32.501  0.00  0.00    +0.000 A 
ATOM     25  C   UNL     1     -44.126  -4.084 -31.984  0.00  0.00    +0.000 A 
ATOM     26  C   UNL     1     -43.176  -3.083 -32.197  0.00  0.00    +0.000 A 
ATOM     27  C   UNL     1     -43.514  -1.945 -32.934  0.00  0.00    +0.000 A 
ATOM     28  F   UNL     1     -42.592  -0.975 -33.141  0.00  0.00    +0.000 F 
ATOM     29  C   UNL     1     -44.801  -1.809 -33.457  0.00  0.00    +0.000 A 
ATOM     30  C   UNL     1     -45.757  -2.807 -33.246  0.00  0.00    +0.000 A 
ATOM     31  F   UNL     1     -46.997  -2.643 -33.769  0.00  0.00    +0.000 F 
ENDBRANCH   7  24
TORSDOF 1
ENDMDL
