MODEL 1
REMARK VINA RESULT:      -6.0      0.000      0.000
REMARK  Name = ZINC000018195610 ZINC18195610
REMARK  2 active torsions:
REMARK  status: ('A' for Active; 'I' for Inactive)
REMARK    1  A    between atoms: C_6  and  C_21
REMARK    2  A    between atoms: C_11  and  O_12
REMARK                            x       y       z     vdW  Elec       q    Type
REMARK                         _______ _______ _______ _____ _____    ______ ____
ROOT
ATOM      1  C   UNL     1     -44.044 -16.255 -19.182  0.00  0.00    +0.000 C 
ATOM      2  C   UNL     1     -45.551 -16.182 -19.378  0.00  0.00    +0.000 C 
ATOM      3  C   UNL     1     -45.884 -15.362 -20.626  0.00  0.00    +0.000 C 
ATOM      4  C   UNL     1     -45.563 -16.068 -21.919  0.00  0.00    +0.000 C 
ATOM      5  C   UNL     1     -45.507 -17.432 -21.994  0.00  0.00    +0.000 C 
ATOM      6  C   UNL     1     -45.127 -18.161 -23.289  0.00  0.00    +0.000 C 
ATOM      7  C   UNL     1     -45.121 -17.234 -24.464  0.00  0.00    +0.000 A 
ATOM      8  C   UNL     1     -45.205 -15.888 -24.347  0.00  0.00    +0.000 A 
ATOM      9  N   UNL     1     -45.110 -15.283 -25.545  0.00  0.00    +0.000 N 
ATOM     10  N   UNL     1     -44.954 -16.244 -26.452  0.00  0.00    +0.000 NA
ATOM     11  C   UNL     1     -44.954 -17.433 -25.811  0.00  0.00    +0.000 A 
ATOM     12  N   UNL     1     -45.397 -15.250 -23.091  0.00  0.00    +0.000 N 
ATOM     13  C   UNL     1     -45.788 -18.243 -20.785  0.00  0.00    +0.000 C 
ATOM     14  O   UNL     1     -45.777 -19.501 -20.845  0.00  0.00    +0.000 OA
ATOM     15  C   UNL     1     -46.143 -17.586 -19.485  0.00  0.00    +0.000 C 
ATOM     16  C   UNL     1     -46.154 -15.494 -18.173  0.00  0.00    +0.000 C 
ATOM     17  H   UNL     1     -45.150 -14.315 -25.717  0.00  0.00    +0.000 HD
ATOM     18  H   UNL     1     -45.414 -14.268 -23.025  0.00  0.00    +0.000 HD
ENDROOT
BRANCH   6  19
ATOM     19  C   UNL     1     -43.798 -18.847 -23.158  0.00  0.00    +0.000 A 
ATOM     20  C   UNL     1     -43.634 -20.198 -23.493  0.00  0.00    +0.000 A 
ATOM     21  C   UNL     1     -42.385 -20.805 -23.350  0.00  0.00    +0.000 A 
ATOM     22  C   UNL     1     -41.313 -20.051 -22.867  0.00  0.00    +0.000 A 
ATOM     23  N   UNL     1     -41.490 -18.742 -22.543  0.00  0.00    +0.000 NA
ATOM     24  C   UNL     1     -42.698 -18.132 -22.675  0.00  0.00    +0.000 A 
ENDBRANCH   6  19
BRANCH  11  25
ATOM     25  O   UNL     1     -44.796 -18.660 -26.444  0.00  0.00    +0.000 OA
ATOM     26  H   UNL     1     -44.640 -18.694 -27.367  0.00  0.00    +0.000 HD
ENDBRANCH  11  25
TORSDOF 2
ENDMDL
MODEL 2
REMARK VINA RESULT:      -5.9      2.354      4.960
REMARK  Name = ZINC000018195610 ZINC18195610
REMARK  2 active torsions:
REMARK  status: ('A' for Active; 'I' for Inactive)
REMARK    1  A    between atoms: C_6  and  C_21
REMARK    2  A    between atoms: C_11  and  O_12
REMARK                            x       y       z     vdW  Elec       q    Type
REMARK                         _______ _______ _______ _____ _____    ______ ____
ROOT
ATOM      1  C   UNL     1     -41.857 -20.992 -19.553  0.00  0.00    +0.000 C 
ATOM      2  C   UNL     1     -40.837 -20.614 -20.617  0.00  0.00    +0.000 C 
ATOM      3  C   UNL     1     -41.331 -21.042 -22.001  0.00  0.00    +0.000 C 
ATOM      4  C   UNL     1     -42.467 -20.200 -22.526  0.00  0.00    +0.000 C 
ATOM      5  C   UNL     1     -42.663 -18.917 -22.098  0.00  0.00    +0.000 C 
ATOM      6  C   UNL     1     -43.846 -18.069 -22.582  0.00  0.00    +0.000 C 
ATOM      7  C   UNL     1     -44.541 -18.704 -23.746  0.00  0.00    +0.000 A 
ATOM      8  C   UNL     1     -44.299 -19.972 -24.153  0.00  0.00    +0.000 A 
ATOM      9  N   UNL     1     -45.101 -20.322 -25.174  0.00  0.00    +0.000 N 
ATOM     10  N   UNL     1     -45.881 -19.275 -25.431  0.00  0.00    +0.000 NA
ATOM     11  C   UNL     1     -45.557 -18.287 -24.569  0.00  0.00    +0.000 A 
ATOM     12  N   UNL     1     -43.291 -20.776 -23.556  0.00  0.00    +0.000 N 
ATOM     13  C   UNL     1     -41.728 -18.325 -21.112  0.00  0.00    +0.000 C 
ATOM     14  O   UNL     1     -41.871 -17.131 -20.735  0.00  0.00    +0.000 OA
ATOM     15  C   UNL     1     -40.566 -19.112 -20.586  0.00  0.00    +0.000 C 
ATOM     16  C   UNL     1     -39.547 -21.345 -20.319  0.00  0.00    +0.000 C 
ATOM     17  H   UNL     1     -45.109 -21.188 -25.643  0.00  0.00    +0.000 HD
ATOM     18  H   UNL     1     -43.159 -21.709 -23.842  0.00  0.00    +0.000 HD
ENDROOT
BRANCH   6  19
ATOM     19  C   UNL     1     -44.820 -17.809 -21.469  0.00  0.00    +0.000 A 
ATOM     20  C   UNL     1     -45.381 -18.858 -20.727  0.00  0.00    +0.000 A 
ATOM     21  C   UNL     1     -46.290 -18.579 -19.705  0.00  0.00    +0.000 A 
ATOM     22  C   UNL     1     -46.632 -17.251 -19.441  0.00  0.00    +0.000 A 
ATOM     23  N   UNL     1     -46.081 -16.246 -20.174  0.00  0.00    +0.000 NA
ATOM     24  C   UNL     1     -45.193 -16.496 -21.173  0.00  0.00    +0.000 A 
ENDBRANCH   6  19
BRANCH  11  25
ATOM     25  O   UNL     1     -46.181 -17.046 -24.535  0.00  0.00    +0.000 OA
ATOM     26  H   UNL     1     -45.672 -16.264 -24.618  0.00  0.00    +0.000 HD
ENDBRANCH  11  25
TORSDOF 2
ENDMDL
MODEL 3
REMARK VINA RESULT:      -5.9     13.207     15.545
REMARK  Name = ZINC000018195610 ZINC18195610
REMARK  2 active torsions:
REMARK  status: ('A' for Active; 'I' for Inactive)
REMARK    1  A    between atoms: C_6  and  C_21
REMARK    2  A    between atoms: C_11  and  O_12
REMARK                            x       y       z     vdW  Elec       q    Type
REMARK                         _______ _______ _______ _____ _____    ______ ____
ROOT
ATOM      1  C   UNL     1     -44.059  -9.676 -33.138  0.00  0.00    +0.000 C 
ATOM      2  C   UNL     1     -45.530  -9.984 -33.377  0.00  0.00    +0.000 C 
ATOM      3  C   UNL     1     -46.340  -9.724 -32.106  0.00  0.00    +0.000 C 
ATOM      4  C   UNL     1     -46.508  -8.261 -31.782  0.00  0.00    +0.000 C 
ATOM      5  C   UNL     1     -46.435  -7.302 -32.753  0.00  0.00    +0.000 C 
ATOM      6  C   UNL     1     -46.548  -5.806 -32.430  0.00  0.00    +0.000 C 
ATOM      7  C   UNL     1     -47.021  -5.578 -31.027  0.00  0.00    +0.000 A 
ATOM      8  C   UNL     1     -47.102  -6.563 -30.103  0.00  0.00    +0.000 A 
ATOM      9  N   UNL     1     -47.489  -6.084 -28.907  0.00  0.00    +0.000 N 
ATOM     10  N   UNL     1     -47.654  -4.772 -29.050  0.00  0.00    +0.000 NA
ATOM     11  C   UNL     1     -47.369  -4.449 -30.330  0.00  0.00    +0.000 A 
ATOM     12  N   UNL     1     -46.826  -7.921 -30.420  0.00  0.00    +0.000 N 
ATOM     13  C   UNL     1     -46.209  -7.703 -34.162  0.00  0.00    +0.000 C 
ATOM     14  O   UNL     1     -46.177  -6.835 -35.075  0.00  0.00    +0.000 OA
ATOM     15  C   UNL     1     -46.069  -9.147 -34.536  0.00  0.00    +0.000 C 
ATOM     16  C   UNL     1     -45.656 -11.448 -33.739  0.00  0.00    +0.000 C 
ATOM     17  H   UNL     1     -47.625  -6.606 -28.083  0.00  0.00    +0.000 HD
ATOM     18  H   UNL     1     -46.853  -8.614 -29.722  0.00  0.00    +0.000 HD
ENDROOT
BRANCH   6  19
ATOM     19  C   UNL     1     -45.245  -5.099 -32.664  0.00  0.00    +0.000 A 
ATOM     20  C   UNL     1     -44.038  -5.600 -32.156  0.00  0.00    +0.000 A 
ATOM     21  C   UNL     1     -42.846  -4.910 -32.386  0.00  0.00    +0.000 A 
ATOM     22  C   UNL     1     -42.877  -3.723 -33.119  0.00  0.00    +0.000 A 
ATOM     23  N   UNL     1     -44.058  -3.248 -33.601  0.00  0.00    +0.000 NA
ATOM     24  C   UNL     1     -45.229  -3.905 -33.389  0.00  0.00    +0.000 A 
ENDBRANCH   6  19
BRANCH  11  25
ATOM     25  O   UNL     1     -47.419  -3.156 -30.838  0.00  0.00    +0.000 OA
ATOM     26  H   UNL     1     -46.627  -2.716 -31.078  0.00  0.00    +0.000 HD
ENDBRANCH  11  25
TORSDOF 2
ENDMDL
