MODEL 1
REMARK VINA RESULT:      -7.3      0.000      0.000
REMARK  Name = ZINC000031810539
REMARK  1 active torsions:
REMARK  status: ('A' for Active; 'I' for Inactive)
REMARK    1  A    between atoms: C_7  and  C_24
REMARK                            x       y       z     vdW  Elec       q    Type
REMARK                         _______ _______ _______ _____ _____    ______ ____
ROOT
ATOM      1  C   UNL     1     -46.475 -15.182 -20.946  0.00  0.00    +0.000 C 
ATOM      2  C   UNL     1     -46.009 -14.788 -22.306  0.00  0.00    +0.000 A 
ATOM      3  N   UNL     1     -46.203 -13.550 -22.791  0.00  0.00    +0.000 NA
ATOM      4  N   UNL     1     -45.770 -13.532 -24.038  0.00  0.00    +0.000 N 
ATOM      5  C   UNL     1     -45.286 -14.747 -24.373  0.00  0.00    +0.000 A 
ATOM      6  C   UNL     1     -45.388 -15.597 -23.264  0.00  0.00    +0.000 A 
ATOM      7  C   UNL     1     -45.071 -17.081 -23.156  0.00  0.00    +0.000 C 
ATOM      8  S   UNL     1     -43.592 -17.563 -24.092  0.00  0.00    +0.000 S 
ATOM      9  C   UNL     1     -44.554 -17.553 -25.613  0.00  0.00    +0.000 C 
ATOM     10  C   UNL     1     -44.353 -16.248 -26.283  0.00  0.00    +0.000 C 
ATOM     11  O   UNL     1     -43.855 -16.234 -27.439  0.00  0.00    +0.000 OA
ATOM     12  N   UNL     1     -44.710 -15.009 -25.666  0.00  0.00    +0.000 N 
ATOM     13  H   UNL     1     -44.535 -14.208 -26.211  0.00  0.00    +0.000 HD
ATOM     14  C   UNL     1     -45.817 -12.351 -24.852  0.00  0.00    +0.000 A 
ATOM     15  N   UNL     1     -45.432 -11.146 -24.334  0.00  0.00    +0.000 NA
ATOM     16  C   UNL     1     -45.492  -9.995 -25.077  0.00  0.00    +0.000 A 
ATOM     17  N   UNL     1     -45.960 -10.020 -26.360  0.00  0.00    +0.000 NA
ATOM     18  C   UNL     1     -46.357 -11.211 -26.870  0.00  0.00    +0.000 A 
ATOM     19  N   UNL     1     -46.894 -11.423 -28.078  0.00  0.00    +0.000 N 
ATOM     20  C   UNL     1     -47.165 -12.756 -28.049  0.00  0.00    +0.000 A 
ATOM     21  N   UNL     1     -46.822 -13.363 -26.879  0.00  0.00    +0.000 NA
ATOM     22  C   UNL     1     -46.304 -12.357 -26.160  0.00  0.00    +0.000 A 
ATOM     23  H   UNL     1     -47.052 -10.777 -28.803  0.00  0.00    +0.000 HD
ENDROOT
BRANCH   7  24
ATOM     24  C   UNL     1     -44.944 -17.591 -21.752  0.00  0.00    +0.000 A 
ATOM     25  C   UNL     1     -43.807 -17.258 -21.006  0.00  0.00    +0.000 A 
ATOM     26  C   UNL     1     -43.668 -17.718 -19.693  0.00  0.00    +0.000 A 
ATOM     27  C   UNL     1     -44.666 -18.513 -19.121  0.00  0.00    +0.000 A 
ATOM     28  C   UNL     1     -45.805 -18.846 -19.859  0.00  0.00    +0.000 A 
ATOM     29  F   UNL     1     -46.772 -19.614 -19.304  0.00  0.00    +0.000 F 
ATOM     30  C   UNL     1     -45.946 -18.386 -21.172  0.00  0.00    +0.000 A 
ENDBRANCH   7  24
TORSDOF 1
ENDMDL
MODEL 2
REMARK VINA RESULT:      -6.9     13.007     15.106
REMARK  Name = ZINC000031810539
REMARK  1 active torsions:
REMARK  status: ('A' for Active; 'I' for Inactive)
REMARK    1  A    between atoms: C_7  and  C_24
REMARK                            x       y       z     vdW  Elec       q    Type
REMARK                         _______ _______ _______ _____ _____    ______ ____
ROOT
ATOM      1  C   UNL     1     -47.083  -3.615 -33.675  0.00  0.00    +0.000 C 
ATOM      2  C   UNL     1     -46.404  -4.833 -34.201  0.00  0.00    +0.000 A 
ATOM      3  N   UNL     1     -46.976  -5.619 -35.128  0.00  0.00    +0.000 NA
ATOM      4  N   UNL     1     -46.183  -6.656 -35.324  0.00  0.00    +0.000 N 
ATOM      5  C   UNL     1     -45.090  -6.553 -34.536  0.00  0.00    +0.000 A 
ATOM      6  C   UNL     1     -45.170  -5.360 -33.806  0.00  0.00    +0.000 A 
ATOM      7  C   UNL     1     -44.243  -4.832 -32.721  0.00  0.00    +0.000 C 
ATOM      8  S   UNL     1     -42.491  -5.163 -33.058  0.00  0.00    +0.000 S 
ATOM      9  C   UNL     1     -42.704  -6.860 -32.496  0.00  0.00    +0.000 C 
ATOM     10  C   UNL     1     -42.926  -7.719 -33.682  0.00  0.00    +0.000 C 
ATOM     11  O   UNL     1     -42.113  -8.651 -33.911  0.00  0.00    +0.000 OA
ATOM     12  N   UNL     1     -44.032  -7.528 -34.568  0.00  0.00    +0.000 N 
ATOM     13  H   UNL     1     -44.078  -8.165 -35.317  0.00  0.00    +0.000 HD
ATOM     14  C   UNL     1     -46.489  -7.694 -36.266  0.00  0.00    +0.000 A 
ATOM     15  N   UNL     1     -46.951  -7.372 -37.513  0.00  0.00    +0.000 NA
ATOM     16  C   UNL     1     -47.280  -8.339 -38.426  0.00  0.00    +0.000 A 
ATOM     17  N   UNL     1     -47.171  -9.664 -38.106  0.00  0.00    +0.000 NA
ATOM     18  C   UNL     1     -46.729  -9.984 -36.867  0.00  0.00    +0.000 A 
ATOM     19  N   UNL     1     -46.613 -11.216 -36.354  0.00  0.00    +0.000 N 
ATOM     20  C   UNL     1     -46.198 -10.967 -35.083  0.00  0.00    +0.000 A 
ATOM     21  N   UNL     1     -46.062  -9.642 -34.796  0.00  0.00    +0.000 NA
ATOM     22  C   UNL     1     -46.396  -9.050 -35.952  0.00  0.00    +0.000 A 
ATOM     23  H   UNL     1     -46.783 -12.082 -36.789  0.00  0.00    +0.000 HD
ENDROOT
BRANCH   7  24
ATOM     24  C   UNL     1     -44.411  -3.375 -32.412  0.00  0.00    +0.000 A 
ATOM     25  C   UNL     1     -45.133  -2.998 -31.274  0.00  0.00    +0.000 A 
ATOM     26  C   UNL     1     -45.301  -1.645 -30.963  0.00  0.00    +0.000 A 
ATOM     27  C   UNL     1     -44.744  -0.664 -31.789  0.00  0.00    +0.000 A 
ATOM     28  C   UNL     1     -44.019  -1.034 -32.925  0.00  0.00    +0.000 A 
ATOM     29  F   UNL     1     -43.479  -0.083 -33.723  0.00  0.00    +0.000 F 
ATOM     30  C   UNL     1     -43.851  -2.386 -33.236  0.00  0.00    +0.000 A 
ENDBRANCH   7  24
TORSDOF 1
ENDMDL
MODEL 3
REMARK VINA RESULT:      -6.7     10.074     13.983
REMARK  Name = ZINC000031810539
REMARK  1 active torsions:
REMARK  status: ('A' for Active; 'I' for Inactive)
REMARK    1  A    between atoms: C_7  and  C_24
REMARK                            x       y       z     vdW  Elec       q    Type
REMARK                         _______ _______ _______ _____ _____    ______ ____
ROOT
ATOM      1  C   UNL     1     -46.233  -4.184 -33.626  0.00  0.00    +0.000 C 
ATOM      2  C   UNL     1     -45.568  -5.492 -33.367  0.00  0.00    +0.000 A 
ATOM      3  N   UNL     1     -46.017  -6.635 -33.910  0.00  0.00    +0.000 NA
ATOM      4  N   UNL     1     -45.288  -7.625 -33.429  0.00  0.00    +0.000 N 
ATOM      5  C   UNL     1     -44.358  -7.138 -32.579  0.00  0.00    +0.000 A 
ATOM      6  C   UNL     1     -44.477  -5.743 -32.529  0.00  0.00    +0.000 A 
ATOM      7  C   UNL     1     -43.731  -4.745 -31.655  0.00  0.00    +0.000 C 
ATOM      8  S   UNL     1     -41.979  -5.163 -31.433  0.00  0.00    +0.000 S 
ATOM      9  C   UNL     1     -42.431  -6.391 -30.196  0.00  0.00    +0.000 C 
ATOM     10  C   UNL     1     -42.494  -7.715 -30.856  0.00  0.00    +0.000 C 
ATOM     11  O   UNL     1     -41.730  -8.628 -30.450  0.00  0.00    +0.000 OA
ATOM     12  N   UNL     1     -43.395  -7.991 -31.932  0.00  0.00    +0.000 N 
ATOM     13  H   UNL     1     -43.350  -8.909 -32.286  0.00  0.00    +0.000 HD
ATOM     14  C   UNL     1     -45.494  -8.993 -33.813  0.00  0.00    +0.000 A 
ATOM     15  N   UNL     1     -45.686  -9.312 -35.129  0.00  0.00    +0.000 NA
ATOM     16  C   UNL     1     -45.915 -10.604 -35.526  0.00  0.00    +0.000 A 
ATOM     17  N   UNL     1     -45.975 -11.613 -34.607  0.00  0.00    +0.000 NA
ATOM     18  C   UNL     1     -45.800 -11.296 -33.301  0.00  0.00    +0.000 A 
ATOM     19  N   UNL     1     -45.883 -12.132 -32.259  0.00  0.00    +0.000 N 
ATOM     20  C   UNL     1     -45.696 -11.299 -31.200  0.00  0.00    +0.000 A 
ATOM     21  N   UNL     1     -45.509  -9.996 -31.548  0.00  0.00    +0.000 NA
ATOM     22  C   UNL     1     -45.572 -10.033 -32.887  0.00  0.00    +0.000 A 
ATOM     23  H   UNL     1     -46.038 -13.104 -32.260  0.00  0.00    +0.000 HD
ENDROOT
BRANCH   7  24
ATOM     24  C   UNL     1     -43.836  -3.320 -32.109  0.00  0.00    +0.000 A 
ATOM     25  C   UNL     1     -43.120  -2.910 -33.240  0.00  0.00    +0.000 A 
ATOM     26  C   UNL     1     -43.205  -1.587 -33.685  0.00  0.00    +0.000 A 
ATOM     27  C   UNL     1     -44.007  -0.669 -33.001  0.00  0.00    +0.000 A 
ATOM     28  C   UNL     1     -44.727  -1.073 -31.873  0.00  0.00    +0.000 A 
ATOM     29  F   UNL     1     -45.505  -0.184 -31.212  0.00  0.00    +0.000 F 
ATOM     30  C   UNL     1     -44.644  -2.395 -31.427  0.00  0.00    +0.000 A 
ENDBRANCH   7  24
TORSDOF 1
ENDMDL
