MODEL 1
REMARK VINA RESULT:      -7.6      0.000      0.000
REMARK  Name = ZINC000031809026
REMARK  1 active torsions:
REMARK  status: ('A' for Active; 'I' for Inactive)
REMARK    1  A    between atoms: C_7  and  C_24
REMARK                            x       y       z     vdW  Elec       q    Type
REMARK                         _______ _______ _______ _____ _____    ______ ____
ROOT
ATOM      1  C   UNL     1     -47.556  -3.737 -33.706  0.00  0.00    +0.000 C 
ATOM      2  C   UNL     1     -46.922  -4.866 -34.442  0.00  0.00    +0.000 A 
ATOM      3  N   UNL     1     -47.452  -5.379 -35.566  0.00  0.00    +0.000 NA
ATOM      4  N   UNL     1     -46.696  -6.391 -35.945  0.00  0.00    +0.000 N 
ATOM      5  C   UNL     1     -45.675  -6.553 -35.073  0.00  0.00    +0.000 A 
ATOM      6  C   UNL     1     -45.754  -5.553 -34.093  0.00  0.00    +0.000 A 
ATOM      7  C   UNL     1     -44.886  -5.268 -32.874  0.00  0.00    +0.000 C 
ATOM      8  S   UNL     1     -43.204  -5.959 -32.925  0.00  0.00    +0.000 S 
ATOM      9  C   UNL     1     -43.786  -7.665 -32.880  0.00  0.00    +0.000 C 
ATOM     10  C   UNL     1     -43.807  -8.144 -34.280  0.00  0.00    +0.000 C 
ATOM     11  O   UNL     1     -43.018  -9.058 -34.624  0.00  0.00    +0.000 OA
ATOM     12  N   UNL     1     -44.661  -7.553 -35.262  0.00  0.00    +0.000 N 
ATOM     13  H   UNL     1     -44.539  -7.872 -36.185  0.00  0.00    +0.000 HD
ATOM     14  C   UNL     1     -46.983  -7.169 -37.116  0.00  0.00    +0.000 A 
ATOM     15  N   UNL     1     -47.393  -6.549 -38.264  0.00  0.00    +0.000 NA
ATOM     16  C   UNL     1     -47.728  -7.260 -39.386  0.00  0.00    +0.000 A 
ATOM     17  N   UNL     1     -47.668  -8.626 -39.384  0.00  0.00    +0.000 NA
ATOM     18  C   UNL     1     -47.256  -9.244 -38.251  0.00  0.00    +0.000 A 
ATOM     19  N   UNL     1     -47.212 -10.563 -38.035  0.00  0.00    +0.000 N 
ATOM     20  C   UNL     1     -46.826 -10.635 -36.732  0.00  0.00    +0.000 A 
ATOM     21  N   UNL     1     -46.651  -9.423 -36.140  0.00  0.00    +0.000 NA
ATOM     22  C   UNL     1     -46.923  -8.563 -37.132  0.00  0.00    +0.000 A 
ATOM     23  H   UNL     1     -47.408 -11.298 -38.661  0.00  0.00    +0.000 HD
ENDROOT
BRANCH   7  24
ATOM     24  C   UNL     1     -44.768  -3.798 -32.560  0.00  0.00    +0.000 A 
ATOM     25  C   UNL     1     -44.096  -2.983 -33.486  0.00  0.00    +0.000 A 
ATOM     26  C   UNL     1     -43.970  -1.611 -33.262  0.00  0.00    +0.000 A 
ATOM     27  C   UNL     1     -44.514  -1.034 -32.114  0.00  0.00    +0.000 A 
ATOM     28  F   UNL     1     -44.383   0.296 -31.896  0.00  0.00    +0.000 F 
ATOM     29  C   UNL     1     -45.179  -1.832 -31.184  0.00  0.00    +0.000 A 
ATOM     30  C   UNL     1     -45.314  -3.207 -31.393  0.00  0.00    +0.000 A 
ATOM     31 CL   UNL     1     -46.165  -4.135 -30.166  0.00  0.00    +0.000 Cl
ENDBRANCH   7  24
TORSDOF 1
ENDMDL
MODEL 2
REMARK VINA RESULT:      -6.7      1.791      2.312
REMARK  Name = ZINC000031809026
REMARK  1 active torsions:
REMARK  status: ('A' for Active; 'I' for Inactive)
REMARK    1  A    between atoms: C_7  and  C_24
REMARK                            x       y       z     vdW  Elec       q    Type
REMARK                         _______ _______ _______ _____ _____    ______ ____
ROOT
ATOM      1  C   UNL     1     -46.973  -4.248 -33.945  0.00  0.00    +0.000 C 
ATOM      2  C   UNL     1     -46.245  -5.539 -34.093  0.00  0.00    +0.000 A 
ATOM      3  N   UNL     1     -46.477  -6.382 -35.114  0.00  0.00    +0.000 NA
ATOM      4  N   UNL     1     -45.724  -7.450 -34.937  0.00  0.00    +0.000 N 
ATOM      5  C   UNL     1     -45.002  -7.319 -33.801  0.00  0.00    +0.000 A 
ATOM      6  C   UNL     1     -45.277  -6.067 -33.232  0.00  0.00    +0.000 A 
ATOM      7  C   UNL     1     -44.765  -5.406 -31.958  0.00  0.00    +0.000 C 
ATOM      8  S   UNL     1     -43.192  -6.053 -31.312  0.00  0.00    +0.000 S 
ATOM      9  C   UNL     1     -43.889  -7.671 -30.928  0.00  0.00    +0.000 C 
ATOM     10  C   UNL     1     -43.555  -8.559 -32.064  0.00  0.00    +0.000 C 
ATOM     11  O   UNL     1     -42.772  -9.522 -31.875  0.00  0.00    +0.000 OA
ATOM     12  N   UNL     1     -44.053  -8.313 -33.380  0.00  0.00    +0.000 N 
ATOM     13  H   UNL     1     -43.703  -8.899 -34.088  0.00  0.00    +0.000 HD
ATOM     14  C   UNL     1     -45.730  -8.556 -35.852  0.00  0.00    +0.000 A 
ATOM     15  N   UNL     1     -45.755  -8.326 -37.200  0.00  0.00    +0.000 NA
ATOM     16  C   UNL     1     -45.816  -9.354 -38.103  0.00  0.00    +0.000 A 
ATOM     17  N   UNL     1     -45.861 -10.651 -37.675  0.00  0.00    +0.000 NA
ATOM     18  C   UNL     1     -45.830 -10.883 -36.342  0.00  0.00    +0.000 A 
ATOM     19  N   UNL     1     -45.947 -12.070 -35.737  0.00  0.00    +0.000 N 
ATOM     20  C   UNL     1     -45.947 -11.731 -34.419  0.00  0.00    +0.000 A 
ATOM     21  N   UNL     1     -45.854 -10.392 -34.194  0.00  0.00    +0.000 NA
ATOM     22  C   UNL     1     -45.772  -9.885 -35.432  0.00  0.00    +0.000 A 
ATOM     23  H   UNL     1     -46.015 -12.965 -36.142  0.00  0.00    +0.000 HD
ENDROOT
BRANCH   7  24
ATOM     24  C   UNL     1     -44.629  -3.909 -32.080  0.00  0.00    +0.000 A 
ATOM     25  C   UNL     1     -45.370  -3.111 -31.194  0.00  0.00    +0.000 A 
ATOM     26  C   UNL     1     -45.274  -1.719 -31.243  0.00  0.00    +0.000 A 
ATOM     27  C   UNL     1     -44.436  -1.106 -32.175  0.00  0.00    +0.000 A 
ATOM     28  F   UNL     1     -44.350   0.244 -32.226  0.00  0.00    +0.000 F 
ATOM     29  C   UNL     1     -43.698  -1.887 -33.065  0.00  0.00    +0.000 A 
ATOM     30  C   UNL     1     -43.784  -3.281 -33.029  0.00  0.00    +0.000 A 
ATOM     31 CL   UNL     1     -42.821  -4.184 -34.190  0.00  0.00    +0.000 Cl
ENDBRANCH   7  24
TORSDOF 1
ENDMDL
MODEL 3
REMARK VINA RESULT:      -6.7      5.612      8.054
REMARK  Name = ZINC000031809026
REMARK  1 active torsions:
REMARK  status: ('A' for Active; 'I' for Inactive)
REMARK    1  A    between atoms: C_7  and  C_24
REMARK                            x       y       z     vdW  Elec       q    Type
REMARK                         _______ _______ _______ _____ _____    ______ ____
ROOT
ATOM      1  C   UNL     1     -43.201  -6.874 -28.044  0.00  0.00    +0.000 C 
ATOM      2  C   UNL     1     -43.514  -6.097 -29.276  0.00  0.00    +0.000 A 
ATOM      3  N   UNL     1     -42.581  -5.384 -29.931  0.00  0.00    +0.000 NA
ATOM      4  N   UNL     1     -43.173  -4.772 -30.939  0.00  0.00    +0.000 N 
ATOM      5  C   UNL     1     -44.491  -5.072 -30.947  0.00  0.00    +0.000 A 
ATOM      6  C   UNL     1     -44.758  -5.969 -29.902  0.00  0.00    +0.000 A 
ATOM      7  C   UNL     1     -46.056  -6.619 -29.441  0.00  0.00    +0.000 C 
ATOM      8  S   UNL     1     -47.384  -6.694 -30.681  0.00  0.00    +0.000 S 
ATOM      9  C   UNL     1     -47.581  -4.902 -30.739  0.00  0.00    +0.000 C 
ATOM     10  C   UNL     1     -46.797  -4.426 -31.901  0.00  0.00    +0.000 C 
ATOM     11  O   UNL     1     -47.403  -3.918 -32.877  0.00  0.00    +0.000 OA
ATOM     12  N   UNL     1     -45.379  -4.583 -31.966  0.00  0.00    +0.000 N 
ATOM     13  H   UNL     1     -44.956  -4.323 -32.815  0.00  0.00    +0.000 HD
ATOM     14  C   UNL     1     -42.460  -3.918 -31.846  0.00  0.00    +0.000 A 
ATOM     15  N   UNL     1     -41.221  -4.284 -32.296  0.00  0.00    +0.000 NA
ATOM     16  C   UNL     1     -40.487  -3.472 -33.120  0.00  0.00    +0.000 A 
ATOM     17  N   UNL     1     -40.976  -2.257 -33.511  0.00  0.00    +0.000 NA
ATOM     18  C   UNL     1     -42.205  -1.894 -33.072  0.00  0.00    +0.000 A 
ATOM     19  N   UNL     1     -42.810  -0.719 -33.281  0.00  0.00    +0.000 N 
ATOM     20  C   UNL     1     -43.955  -0.846 -32.556  0.00  0.00    +0.000 A 
ATOM     21  N   UNL     1     -44.067  -2.033 -31.902  0.00  0.00    +0.000 NA
ATOM     22  C   UNL     1     -42.947  -2.678 -32.258  0.00  0.00    +0.000 A 
ATOM     23  H   UNL     1     -42.505   0.044 -33.822  0.00  0.00    +0.000 HD
ENDROOT
BRANCH   7  24
ATOM     24  C   UNL     1     -45.861  -8.011 -28.894  0.00  0.00    +0.000 A 
ATOM     25  C   UNL     1     -45.454  -9.014 -29.788  0.00  0.00    +0.000 A 
ATOM     26  C   UNL     1     -45.238 -10.319 -29.340  0.00  0.00    +0.000 A 
ATOM     27  C   UNL     1     -45.423 -10.638 -27.995  0.00  0.00    +0.000 A 
ATOM     28  F   UNL     1     -45.221 -11.906 -27.564  0.00  0.00    +0.000 F 
ATOM     29  C   UNL     1     -45.832  -9.653 -27.097  0.00  0.00    +0.000 A 
ATOM     30  C   UNL     1     -46.053  -8.342 -27.529  0.00  0.00    +0.000 A 
ATOM     31 CL   UNL     1     -46.569  -7.167 -26.329  0.00  0.00    +0.000 Cl
ENDBRANCH   7  24
TORSDOF 1
ENDMDL
