MODEL 1
REMARK VINA RESULT:      -6.2      0.000      0.000
REMARK  Name = ZINC000023755315 ZINC23755315 CSC028219200 MCULE-8163591876 MolPort-009-162-197 PubChem-31343882
REMARK  2 active torsions:
REMARK  status: ('A' for Active; 'I' for Inactive)
REMARK    1  A    between atoms: C_1  and  C_12
REMARK    2  A    between atoms: N_3  and  C_16
REMARK                            x       y       z     vdW  Elec       q    Type
REMARK                         _______ _______ _______ _____ _____    ______ ____
ROOT
ATOM      1  C   UNL     1     -45.351 -18.803 -24.852  0.00  0.00    +0.000 C 
ATOM      2  O   UNL     1     -46.241 -19.576 -25.295  0.00  0.00    +0.000 OA
ATOM      3  N   UNL     1     -44.823 -17.793 -25.725  0.00  0.00    +0.000 N 
ATOM      4  H   UNL     1     -44.727 -18.029 -26.676  0.00  0.00    +0.000 HD
ENDROOT
BRANCH   1  12
ATOM      5  C   UNL     1     -42.367 -20.156 -19.076  0.00  0.00    +0.000 C 
ATOM      6  N   UNL     1     -43.471 -19.419 -19.666  0.00  0.00    +0.000 N 
ATOM      7  N   UNL     1     -44.327 -18.671 -18.976  0.00  0.00    +0.000 NA
ATOM      8  C   UNL     1     -45.213 -18.142 -19.858  0.00  0.00    +0.000 A 
ATOM      9  C   UNL     1     -46.338 -17.244 -19.480  0.00  0.00    +0.000 C 
ATOM     10  C   UNL     1     -44.896 -18.575 -21.128  0.00  0.00    +0.000 A 
ATOM     11  C   UNL     1     -45.449 -18.353 -22.382  0.00  0.00    +0.000 A 
ATOM     12  C   UNL     1     -44.839 -18.999 -23.480  0.00  0.00    +0.000 A 
ATOM     13  C   UNL     1     -43.693 -19.808 -23.259  0.00  0.00    +0.000 A 
ATOM     14  N   UNL     1     -43.190 -19.989 -22.000  0.00  0.00    +0.000 NA
ATOM     15  C   UNL     1     -43.806 -19.369 -20.963  0.00  0.00    +0.000 A 
ENDBRANCH   1  12
BRANCH   3  16
ATOM     16  C   UNL     1     -44.423 -16.471 -25.337  0.00  0.00    +0.000 A 
ATOM     17  C   UNL     1     -45.380 -15.475 -25.087  0.00  0.00    +0.000 A 
ATOM     18  C   UNL     1     -44.977 -14.186 -24.731  0.00  0.00    +0.000 A 
ATOM     19  C   UNL     1     -43.615 -13.873 -24.659  0.00  0.00    +0.000 A 
ATOM     20  O   UNL     1     -43.234 -12.567 -24.338  0.00  0.00    +0.000 OA
ATOM     21  C   UNL     1     -44.185 -11.499 -24.363  0.00  0.00    +0.000 C 
ATOM     22  C   UNL     1     -45.530 -11.975 -23.809  0.00  0.00    +0.000 C 
ATOM     23  O   UNL     1     -45.921 -13.197 -24.440  0.00  0.00    +0.000 OA
ATOM     24  C   UNL     1     -42.655 -14.855 -24.910  0.00  0.00    +0.000 A 
ATOM     25  C   UNL     1     -43.055 -16.152 -25.253  0.00  0.00    +0.000 A 
ATOM     26 BR   UNL     1     -41.708 -17.464 -25.596  0.00  0.00    +0.000 Br
ENDBRANCH   3  16
TORSDOF 2
ENDMDL
MODEL 2
REMARK VINA RESULT:      -6.0     13.303     16.097
REMARK  Name = ZINC000023755315 ZINC23755315 CSC028219200 MCULE-8163591876 MolPort-009-162-197 PubChem-31343882
REMARK  2 active torsions:
REMARK  status: ('A' for Active; 'I' for Inactive)
REMARK    1  A    between atoms: C_1  and  C_12
REMARK    2  A    between atoms: N_3  and  C_16
REMARK                            x       y       z     vdW  Elec       q    Type
REMARK                         _______ _______ _______ _____ _____    ______ ____
ROOT
ATOM      1  C   UNL     1     -46.712  -4.843 -33.798  0.00  0.00    +0.000 C 
ATOM      2  O   UNL     1     -47.077  -5.163 -34.960  0.00  0.00    +0.000 OA
ATOM      3  N   UNL     1     -47.685  -4.867 -32.742  0.00  0.00    +0.000 N 
ATOM      4  H   UNL     1     -48.603  -4.598 -32.974  0.00  0.00    +0.000 HD
ENDROOT
BRANCH   1  12
ATOM      5  C   UNL     1     -40.215  -3.682 -33.070  0.00  0.00    +0.000 C 
ATOM      6  N   UNL     1     -41.521  -3.053 -32.986  0.00  0.00    +0.000 N 
ATOM      7  N   UNL     1     -41.721  -1.779 -32.661  0.00  0.00    +0.000 NA
ATOM      8  C   UNL     1     -43.059  -1.554 -32.686  0.00  0.00    +0.000 A 
ATOM      9  C   UNL     1     -43.695  -0.245 -32.376  0.00  0.00    +0.000 C 
ATOM     10  C   UNL     1     -43.704  -2.720 -33.038  0.00  0.00    +0.000 A 
ATOM     11  C   UNL     1     -45.039  -3.062 -33.214  0.00  0.00    +0.000 A 
ATOM     12  C   UNL     1     -45.321  -4.398 -33.572  0.00  0.00    +0.000 A 
ATOM     13  C   UNL     1     -44.247  -5.308 -33.758  0.00  0.00    +0.000 A 
ATOM     14  N   UNL     1     -42.950  -4.915 -33.573  0.00  0.00    +0.000 NA
ATOM     15  C   UNL     1     -42.710  -3.629 -33.214  0.00  0.00    +0.000 A 
ENDBRANCH   1  12
BRANCH   3  16
ATOM     16  C   UNL     1     -47.439  -5.247 -31.381  0.00  0.00    +0.000 A 
ATOM     17  C   UNL     1     -47.524  -4.303 -30.344  0.00  0.00    +0.000 A 
ATOM     18  C   UNL     1     -47.261  -4.681 -29.027  0.00  0.00    +0.000 A 
ATOM     19  C   UNL     1     -46.875  -5.995 -28.738  0.00  0.00    +0.000 A 
ATOM     20  O   UNL     1     -46.580  -6.342 -27.417  0.00  0.00    +0.000 OA
ATOM     21  C   UNL     1     -46.390  -5.335 -26.419  0.00  0.00    +0.000 C 
ATOM     22  C   UNL     1     -47.392  -4.195 -26.620  0.00  0.00    +0.000 C 
ATOM     23  O   UNL     1     -47.381  -3.760 -27.981  0.00  0.00    +0.000 OA
ATOM     24  C   UNL     1     -46.784  -6.939 -29.761  0.00  0.00    +0.000 A 
ATOM     25  C   UNL     1     -47.060  -6.569 -31.082  0.00  0.00    +0.000 A 
ATOM     26 BR   UNL     1     -46.916  -7.892 -32.454  0.00  0.00    +0.000 Br
ENDBRANCH   3  16
TORSDOF 2
ENDMDL
MODEL 3
REMARK VINA RESULT:      -6.0     12.405     16.260
REMARK  Name = ZINC000023755315 ZINC23755315 CSC028219200 MCULE-8163591876 MolPort-009-162-197 PubChem-31343882
REMARK  2 active torsions:
REMARK  status: ('A' for Active; 'I' for Inactive)
REMARK    1  A    between atoms: C_1  and  C_12
REMARK    2  A    between atoms: N_3  and  C_16
REMARK                            x       y       z     vdW  Elec       q    Type
REMARK                         _______ _______ _______ _____ _____    ______ ____
ROOT
ATOM      1  C   UNL     1     -47.045  -3.685 -32.941  0.00  0.00    +0.000 C 
ATOM      2  O   UNL     1     -47.666  -3.590 -34.031  0.00  0.00    +0.000 OA
ATOM      3  N   UNL     1     -47.705  -4.301 -31.825  0.00  0.00    +0.000 N 
ATOM      4  H   UNL     1     -48.673  -4.142 -31.735  0.00  0.00    +0.000 HD
ENDROOT
BRANCH   1  12
ATOM      5  C   UNL     1     -41.337  -0.455 -31.901  0.00  0.00    +0.000 C 
ATOM      6  N   UNL     1     -41.900  -1.642 -32.519  0.00  0.00    +0.000 N 
ATOM      7  N   UNL     1     -41.190  -2.558 -33.170  0.00  0.00    +0.000 NA
ATOM      8  C   UNL     1     -42.051  -3.513 -33.605  0.00  0.00    +0.000 A 
ATOM      9  C   UNL     1     -41.647  -4.716 -34.382  0.00  0.00    +0.000 C 
ATOM     10  C   UNL     1     -43.330  -3.178 -33.211  0.00  0.00    +0.000 A 
ATOM     11  C   UNL     1     -44.571  -3.777 -33.376  0.00  0.00    +0.000 A 
ATOM     12  C   UNL     1     -45.688  -3.109 -32.827  0.00  0.00    +0.000 A 
ATOM     13  C   UNL     1     -45.491  -1.893 -32.122  0.00  0.00    +0.000 A 
ATOM     14  N   UNL     1     -44.242  -1.350 -31.988  0.00  0.00    +0.000 NA
ATOM     15  C   UNL     1     -43.191  -2.006 -32.539  0.00  0.00    +0.000 A 
ENDBRANCH   1  12
BRANCH   3  16
ATOM     16  C   UNL     1     -47.084  -5.128 -30.831  0.00  0.00    +0.000 A 
ATOM     17  C   UNL     1     -47.026  -4.719 -29.489  0.00  0.00    +0.000 A 
ATOM     18  C   UNL     1     -46.399  -5.522 -28.536  0.00  0.00    +0.000 A 
ATOM     19  C   UNL     1     -45.791  -6.723 -28.921  0.00  0.00    +0.000 A 
ATOM     20  O   UNL     1     -45.136  -7.493 -27.956  0.00  0.00    +0.000 OA
ATOM     21  C   UNL     1     -44.832  -6.951 -26.668  0.00  0.00    +0.000 C 
ATOM     22  C   UNL     1     -45.989  -6.077 -26.176  0.00  0.00    +0.000 C 
ATOM     23  O   UNL     1     -46.371  -5.145 -27.190  0.00  0.00    +0.000 OA
ATOM     24  C   UNL     1     -45.838  -7.136 -30.253  0.00  0.00    +0.000 A 
ATOM     25  C   UNL     1     -46.479  -6.341 -31.210  0.00  0.00    +0.000 A 
ATOM     26 BR   UNL     1     -46.514  -6.941 -33.025  0.00  0.00    +0.000 Br
ENDBRANCH   3  16
TORSDOF 2
ENDMDL
