MODEL 1
REMARK VINA RESULT:      -5.8      0.000      0.000
REMARK  Name = ZINC000011565587 ZINC11565587 PubChem-12304941
REMARK  9 active torsions:
REMARK  status: ('A' for Active; 'I' for Inactive)
REMARK    1  A    between atoms: N_9  and  C_20
REMARK    2  A    between atoms: C_20  and  C_21
REMARK    3  A    between atoms: C_21  and  O_22
REMARK    4  A    between atoms: C_21  and  C_24
REMARK    5  A    between atoms: C_24  and  O_25
REMARK    6  A    between atoms: C_24  and  C_27
REMARK    7  A    between atoms: C_27  and  O_28
REMARK    8  A    between atoms: C_27  and  C_30
REMARK    9  A    between atoms: C_30  and  O_31
REMARK                            x       y       z     vdW  Elec       q    Type
REMARK                         _______ _______ _______ _____ _____    ______ ____
ROOT
ATOM      1  C   UNL     1     -46.996  -4.149 -23.870  0.00  0.00    +0.000 C 
ATOM      2  C   UNL     1     -47.033  -4.477 -25.325  0.00  0.00    +0.000 A 
ATOM      3  C   UNL     1     -46.722  -5.778 -25.727  0.00  0.00    +0.000 A 
ATOM      4  C   UNL     1     -46.744  -6.130 -27.078  0.00  0.00    +0.000 A 
ATOM      5  C   UNL     1     -47.086  -5.161 -28.060  0.00  0.00    +0.000 A 
ATOM      6  C   UNL     1     -47.396  -3.856 -27.641  0.00  0.00    +0.000 A 
ATOM      7  C   UNL     1     -47.371  -3.510 -26.287  0.00  0.00    +0.000 A 
ATOM      8  C   UNL     1     -47.710  -2.110 -25.901  0.00  0.00    +0.000 C 
ATOM      9  N   UNL     1     -47.111  -5.503 -29.392  0.00  0.00    +0.000 N 
ATOM     10  C   UNL     1     -46.798  -6.778 -29.772  0.00  0.00    +0.000 A 
ATOM     11  N   UNL     1     -46.801  -7.160 -31.076  0.00  0.00    +0.000 NA
ATOM     12  C   UNL     1     -46.488  -8.434 -31.431  0.00  0.00    +0.000 A 
ATOM     13  O   UNL     1     -46.499  -8.762 -32.647  0.00  0.00    +0.000 OA
ATOM     14  N   UNL     1     -46.162  -9.361 -30.487  0.00  0.00    +0.000 N 
ATOM     15  C   UNL     1     -46.134  -9.061 -29.161  0.00  0.00    +0.000 A 
ATOM     16  O   UNL     1     -45.827  -9.951 -28.325  0.00  0.00    +0.000 OA
ATOM     17  C   UNL     1     -46.446  -7.769 -28.743  0.00  0.00    +0.000 A 
ATOM     18  N   UNL     1     -46.435  -7.401 -27.440  0.00  0.00    +0.000 NA
ATOM     19  H   UNL     1     -45.941 -10.276 -30.773  0.00  0.00    +0.000 HD
ENDROOT
BRANCH   9  20
ATOM     20  C   UNL     1     -47.476  -4.518 -30.414  0.00  0.00    +0.000 C 
BRANCH  20  21
ATOM     21  C   UNL     1     -46.231  -3.860 -31.001  0.00  0.00    +0.000 C 
BRANCH  21  22
ATOM     22  O   UNL     1     -45.929  -2.682 -30.313  0.00  0.00    +0.000 OA
ATOM     23  H   UNL     1     -46.675  -2.441 -29.742  0.00  0.00    +0.000 HD
ENDBRANCH  21  22
BRANCH  21  24
ATOM     24  C   UNL     1     -46.408  -3.595 -32.495  0.00  0.00    +0.000 C 
BRANCH  24  25
ATOM     25  O   UNL     1     -47.756  -3.702 -32.846  0.00  0.00    +0.000 OA
ATOM     26  H   UNL     1     -47.928  -4.586 -33.207  0.00  0.00    +0.000 HD
ENDBRANCH  24  25
BRANCH  24  27
ATOM     27  C   UNL     1     -45.539  -4.499 -33.376  0.00  0.00    +0.000 C 
BRANCH  27  28
ATOM     28  O   UNL     1     -44.930  -5.498 -32.615  0.00  0.00    +0.000 OA
ATOM     29  H   UNL     1     -43.968  -5.452 -32.730  0.00  0.00    +0.000 HD
ENDBRANCH  27  28
BRANCH  27  30
ATOM     30  C   UNL     1     -46.370  -5.137 -34.476  0.00  0.00    +0.000 C 
BRANCH  30  31
ATOM     31  O   UNL     1     -46.945  -6.321 -34.013  0.00  0.00    +0.000 OA
ATOM     32  H   UNL     1     -47.756  -6.504 -34.515  0.00  0.00    +0.000 HD
ENDBRANCH  30  31
ENDBRANCH  27  30
ENDBRANCH  24  27
ENDBRANCH  21  24
ENDBRANCH  20  21
ENDBRANCH   9  20
TORSDOF 9
ENDMDL
MODEL 2
REMARK VINA RESULT:      -5.7     13.607     17.405
REMARK  Name = ZINC000011565587 ZINC11565587 PubChem-12304941
REMARK  9 active torsions:
REMARK  status: ('A' for Active; 'I' for Inactive)
REMARK    1  A    between atoms: N_9  and  C_20
REMARK    2  A    between atoms: C_20  and  C_21
REMARK    3  A    between atoms: C_21  and  O_22
REMARK    4  A    between atoms: C_21  and  C_24
REMARK    5  A    between atoms: C_24  and  O_25
REMARK    6  A    between atoms: C_24  and  C_27
REMARK    7  A    between atoms: C_27  and  O_28
REMARK    8  A    between atoms: C_27  and  C_30
REMARK    9  A    between atoms: C_30  and  O_31
REMARK                            x       y       z     vdW  Elec       q    Type
REMARK                         _______ _______ _______ _____ _____    ______ ____
ROOT
ATOM      1  C   UNL     1     -44.992 -19.899 -25.099  0.00  0.00    +0.000 C 
ATOM      2  C   UNL     1     -44.605 -19.328 -23.776  0.00  0.00    +0.000 A 
ATOM      3  C   UNL     1     -45.310 -18.226 -23.290  0.00  0.00    +0.000 A 
ATOM      4  C   UNL     1     -44.983 -17.659 -22.057  0.00  0.00    +0.000 A 
ATOM      5  C   UNL     1     -43.923 -18.203 -21.281  0.00  0.00    +0.000 A 
ATOM      6  C   UNL     1     -43.222 -19.312 -21.784  0.00  0.00    +0.000 A 
ATOM      7  C   UNL     1     -43.554 -19.875 -23.019  0.00  0.00    +0.000 A 
ATOM      8  C   UNL     1     -42.775 -21.052 -23.502  0.00  0.00    +0.000 C 
ATOM      9  N   UNL     1     -43.598 -17.649 -20.066  0.00  0.00    +0.000 N 
ATOM     10  C   UNL     1     -44.292 -16.567 -19.605  0.00  0.00    +0.000 A 
ATOM     11  N   UNL     1     -44.002 -15.981 -18.414  0.00  0.00    +0.000 NA
ATOM     12  C   UNL     1     -44.707 -14.905 -17.974  0.00  0.00    +0.000 A 
ATOM     13  O   UNL     1     -44.417 -14.382 -16.866  0.00  0.00    +0.000 OA
ATOM     14  N   UNL     1     -45.723 -14.387 -18.719  0.00  0.00    +0.000 N 
ATOM     15  C   UNL     1     -46.077 -14.911 -19.922  0.00  0.00    +0.000 A 
ATOM     16  O   UNL     1     -47.024 -14.398 -20.575  0.00  0.00    +0.000 OA
ATOM     17  C   UNL     1     -45.387 -16.014 -20.419  0.00  0.00    +0.000 A 
ATOM     18  N   UNL     1     -45.684 -16.586 -21.610  0.00  0.00    +0.000 NA
ATOM     19  H   UNL     1     -46.217 -13.608 -18.375  0.00  0.00    +0.000 HD
ENDROOT
BRANCH   9  20
ATOM     20  C   UNL     1     -42.517 -18.210 -19.249  0.00  0.00    +0.000 C 
BRANCH  20  21
ATOM     21  C   UNL     1     -43.077 -19.143 -18.179  0.00  0.00    +0.000 C 
BRANCH  21  22
ATOM     22  O   UNL     1     -42.554 -18.818 -16.924  0.00  0.00    +0.000 OA
ATOM     23  H   UNL     1     -43.209 -19.024 -16.240  0.00  0.00    +0.000 HD
ENDBRANCH  21  22
BRANCH  21  24
ATOM     24  C   UNL     1     -42.798 -20.603 -18.531  0.00  0.00    +0.000 C 
BRANCH  24  25
ATOM     25  O   UNL     1     -43.837 -21.417 -18.072  0.00  0.00    +0.000 OA
ATOM     26  H   UNL     1     -44.445 -20.890 -17.530  0.00  0.00    +0.000 HD
ENDBRANCH  24  25
BRANCH  24  27
ATOM     27  C   UNL     1     -41.443 -21.101 -18.014  0.00  0.00    +0.000 C 
BRANCH  27  28
ATOM     28  O   UNL     1     -41.585 -21.733 -16.778  0.00  0.00    +0.000 OA
ATOM     29  H   UNL     1     -42.477 -22.108 -16.707  0.00  0.00    +0.000 HD
ENDBRANCH  27  28
BRANCH  27  30
ATOM     30  C   UNL     1     -40.811 -22.064 -19.005  0.00  0.00    +0.000 C 
BRANCH  30  31
ATOM     31  O   UNL     1     -41.790 -22.591 -19.848  0.00  0.00    +0.000 OA
ATOM     32  H   UNL     1     -41.398 -22.790 -20.714  0.00  0.00    +0.000 HD
ENDBRANCH  30  31
ENDBRANCH  27  30
ENDBRANCH  24  27
ENDBRANCH  21  24
ENDBRANCH  20  21
ENDBRANCH   9  20
TORSDOF 9
ENDMDL
MODEL 3
REMARK VINA RESULT:      -5.6      1.791      2.476
REMARK  Name = ZINC000011565587 ZINC11565587 PubChem-12304941
REMARK  9 active torsions:
REMARK  status: ('A' for Active; 'I' for Inactive)
REMARK    1  A    between atoms: N_9  and  C_20
REMARK    2  A    between atoms: C_20  and  C_21
REMARK    3  A    between atoms: C_21  and  O_22
REMARK    4  A    between atoms: C_21  and  C_24
REMARK    5  A    between atoms: C_24  and  O_25
REMARK    6  A    between atoms: C_24  and  C_27
REMARK    7  A    between atoms: C_27  and  O_28
REMARK    8  A    between atoms: C_27  and  C_30
REMARK    9  A    between atoms: C_30  and  O_31
REMARK                            x       y       z     vdW  Elec       q    Type
REMARK                         _______ _______ _______ _____ _____    ______ ____
ROOT
ATOM      1  C   UNL     1     -46.505  -6.057 -25.147  0.00  0.00    +0.000 C 
ATOM      2  C   UNL     1     -46.586  -5.836 -26.620  0.00  0.00    +0.000 A 
ATOM      3  C   UNL     1     -46.262  -6.892 -27.474  0.00  0.00    +0.000 A 
ATOM      4  C   UNL     1     -46.323  -6.731 -28.860  0.00  0.00    +0.000 A 
ATOM      5  C   UNL     1     -46.721  -5.484 -29.415  0.00  0.00    +0.000 A 
ATOM      6  C   UNL     1     -47.044  -4.431 -28.543  0.00  0.00    +0.000 A 
ATOM      7  C   UNL     1     -46.979  -4.598 -27.157  0.00  0.00    +0.000 A 
ATOM      8  C   UNL     1     -47.334  -3.445 -26.280  0.00  0.00    +0.000 C 
ATOM      9  N   UNL     1     -46.785  -5.321 -30.778  0.00  0.00    +0.000 N 
ATOM     10  C   UNL     1     -46.458  -6.360 -31.603  0.00  0.00    +0.000 A 
ATOM     11  N   UNL     1     -46.499  -6.244 -32.956  0.00  0.00    +0.000 NA
ATOM     12  C   UNL     1     -46.170  -7.292 -33.758  0.00  0.00    +0.000 A 
ATOM     13  O   UNL     1     -46.217  -7.157 -35.009  0.00  0.00    +0.000 OA
ATOM     14  N   UNL     1     -45.792  -8.486 -33.223  0.00  0.00    +0.000 N 
ATOM     15  C   UNL     1     -45.723  -8.686 -31.879  0.00  0.00    +0.000 A 
ATOM     16  O   UNL     1     -45.368  -9.808 -31.432  0.00  0.00    +0.000 OA
ATOM     17  C   UNL     1     -46.048  -7.645 -31.013  0.00  0.00    +0.000 A 
ATOM     18  N   UNL     1     -46.000  -7.773 -29.666  0.00  0.00    +0.000 NA
ATOM     19  H   UNL     1     -45.561  -9.228 -33.828  0.00  0.00    +0.000 HD
ENDROOT
BRANCH   9  20
ATOM     20  C   UNL     1     -47.207  -4.045 -31.364  0.00  0.00    +0.000 C 
BRANCH  20  21
ATOM     21  C   UNL     1     -45.999  -3.169 -31.680  0.00  0.00    +0.000 C 
BRANCH  21  22
ATOM     22  O   UNL     1     -45.828  -2.195 -30.692  0.00  0.00    +0.000 OA
ATOM     23  H   UNL     1     -45.974  -2.592 -29.820  0.00  0.00    +0.000 HD
ENDBRANCH  21  22
BRANCH  21  24
ATOM     24  C   UNL     1     -46.135  -2.533 -33.062  0.00  0.00    +0.000 C 
BRANCH  24  25
ATOM     25  O   UNL     1     -46.686  -3.449 -33.962  0.00  0.00    +0.000 OA
ATOM     26  H   UNL     1     -45.990  -3.783 -34.550  0.00  0.00    +0.000 HD
ENDBRANCH  24  25
BRANCH  24  27
ATOM     27  C   UNL     1     -44.817  -1.962 -33.597  0.00  0.00    +0.000 C 
BRANCH  27  28
ATOM     28  O   UNL     1     -44.414  -0.857 -32.847  0.00  0.00    +0.000 OA
ATOM     29  H   UNL     1     -43.824  -1.148 -32.133  0.00  0.00    +0.000 HD
ENDBRANCH  27  28
BRANCH  27  30
ATOM     30  C   UNL     1     -43.725  -3.017 -33.570  0.00  0.00    +0.000 C 
BRANCH  30  31
ATOM     31  O   UNL     1     -42.738  -2.708 -34.507  0.00  0.00    +0.000 OA
ATOM     32  H   UNL     1     -41.863  -2.808 -34.100  0.00  0.00    +0.000 HD
ENDBRANCH  30  31
ENDBRANCH  27  30
ENDBRANCH  24  27
ENDBRANCH  21  24
ENDBRANCH  20  21
ENDBRANCH   9  20
TORSDOF 9
ENDMDL
