MODEL 1
REMARK VINA RESULT:      -7.1      0.000      0.000
REMARK  Name = ZINC000019138008
REMARK  5 active torsions:
REMARK  status: ('A' for Active; 'I' for Inactive)
REMARK    1  A    between atoms: C_1  and  C_23
REMARK    2  A    between atoms: C_2  and  O_3
REMARK    3  A    between atoms: C_7  and  C_9
REMARK    4  A    between atoms: C_12  and  C_15
REMARK    5  A    between atoms: C_23  and  C_29
REMARK                            x       y       z     vdW  Elec       q    Type
REMARK                         _______ _______ _______ _____ _____    ______ ____
ROOT
ATOM      1  C   UNL     1     -45.503 -17.099 -25.122  0.00  0.00    +0.000 C 
ATOM      2  C   UNL     1     -44.850 -16.948 -26.273  0.00  0.00    +0.000 C 
ATOM      3  C   UNL     1     -44.879 -15.558 -26.647  0.00  0.00    +0.000 C 
ATOM      4  O   UNL     1     -44.374 -15.070 -27.692  0.00  0.00    +0.000 OA
ATOM      5  N   UNL     1     -45.582 -14.813 -25.666  0.00  0.00    +0.000 N 
ATOM      6  C   UNL     1     -46.002 -15.753 -24.624  0.00  0.00    +0.000 C 
ATOM      7  C   UNL     1     -45.974 -13.437 -25.764  0.00  0.00    +0.000 A 
ATOM      8  N   UNL     1     -46.805 -12.960 -26.712  0.00  0.00    +0.000 NA
ATOM      9  N   UNL     1     -47.024 -11.650 -26.603  0.00  0.00    +0.000 NA
ATOM     10  C   UNL     1     -46.375 -11.060 -25.571  0.00  0.00    +0.000 A 
ATOM     11  S   UNL     1     -45.471 -12.211 -24.732  0.00  0.00    +0.000 S 
ENDROOT
BRANCH   6  12
ATOM     12  C   UNL     1     -45.376 -15.398 -23.304  0.00  0.00    +0.000 A 
ATOM     13  C   UNL     1     -46.202 -15.088 -22.219  0.00  0.00    +0.000 A 
ATOM     14  C   UNL     1     -45.644 -14.758 -20.981  0.00  0.00    +0.000 A 
ATOM     15  C   UNL     1     -44.251 -14.736 -20.819  0.00  0.00    +0.000 A 
ATOM     16  C   UNL     1     -43.424 -15.046 -21.904  0.00  0.00    +0.000 A 
ATOM     17  C   UNL     1     -43.982 -15.375 -23.141  0.00  0.00    +0.000 A 
BRANCH  15  18
ATOM     18  C   UNL     1     -43.626 -14.388 -19.504  0.00  0.00    +0.000 C 
ATOM     19  C   UNL     1     -43.694 -15.558 -18.541  0.00  0.00    +0.000 C 
ATOM     20  C   UNL     1     -44.287 -13.167 -18.891  0.00  0.00    +0.000 C 
ENDBRANCH  15  18
ENDBRANCH   6  12
BRANCH   2  21
ATOM     21  O   UNL     1     -44.252 -17.966 -27.007  0.00  0.00    +0.000 OA
ATOM     22  H   UNL     1     -44.599 -18.206 -27.844  0.00  0.00    +0.000 HD
ENDBRANCH   2  21
BRANCH   1  23
ATOM     23  C   UNL     1     -45.684 -18.391 -24.417  0.00  0.00    +0.000 C 
ATOM     24  O   UNL     1     -46.341 -19.309 -24.980  0.00  0.00    +0.000 OA
BRANCH  23  29
ATOM     25  C   UNL     1     -43.464 -19.326 -19.169  0.00  0.00    +0.000 C 
ATOM     26  C   UNL     1     -44.032 -19.088 -20.521  0.00  0.00    +0.000 A 
ATOM     27  C   UNL     1     -43.219 -19.210 -21.651  0.00  0.00    +0.000 A 
ATOM     28  C   UNL     1     -43.754 -18.986 -22.923  0.00  0.00    +0.000 A 
ATOM     29  C   UNL     1     -45.106 -18.646 -23.079  0.00  0.00    +0.000 A 
ATOM     30  C   UNL     1     -45.910 -18.513 -21.936  0.00  0.00    +0.000 A 
ATOM     31  C   UNL     1     -45.376 -18.736 -20.663  0.00  0.00    +0.000 A 
ENDBRANCH  23  29
ENDBRANCH   1  23
TORSDOF 5
ENDMDL
MODEL 2
REMARK VINA RESULT:      -6.5     10.390     15.365
REMARK  Name = ZINC000019138008
REMARK  5 active torsions:
REMARK  status: ('A' for Active; 'I' for Inactive)
REMARK    1  A    between atoms: C_1  and  C_23
REMARK    2  A    between atoms: C_2  and  O_3
REMARK    3  A    between atoms: C_7  and  C_9
REMARK    4  A    between atoms: C_12  and  C_15
REMARK    5  A    between atoms: C_23  and  C_29
REMARK                            x       y       z     vdW  Elec       q    Type
REMARK                         _______ _______ _______ _____ _____    ______ ____
ROOT
ATOM      1  C   UNL     1     -46.225  -4.566 -32.116  0.00  0.00    +0.000 C 
ATOM      2  C   UNL     1     -46.978  -4.638 -31.020  0.00  0.00    +0.000 C 
ATOM      3  C   UNL     1     -46.874  -5.964 -30.469  0.00  0.00    +0.000 C 
ATOM      4  O   UNL     1     -47.474  -6.381 -29.443  0.00  0.00    +0.000 OA
ATOM      5  N   UNL     1     -46.000  -6.747 -31.267  0.00  0.00    +0.000 N 
ATOM      6  C   UNL     1     -45.519  -5.890 -32.354  0.00  0.00    +0.000 C 
ATOM      7  C   UNL     1     -45.777  -8.158 -31.148  0.00  0.00    +0.000 A 
ATOM      8  N   UNL     1     -46.743  -9.085 -31.307  0.00  0.00    +0.000 NA
ATOM      9  N   UNL     1     -46.299 -10.333 -31.149  0.00  0.00    +0.000 NA
ATOM     10  C   UNL     1     -44.978 -10.423 -30.863  0.00  0.00    +0.000 A 
ATOM     11  S   UNL     1     -44.302  -8.880 -30.797  0.00  0.00    +0.000 S 
ENDROOT
BRANCH   6  12
ATOM     12  C   UNL     1     -44.026  -5.729 -32.281  0.00  0.00    +0.000 A 
ATOM     13  C   UNL     1     -43.247  -6.094 -33.384  0.00  0.00    +0.000 A 
ATOM     14  C   UNL     1     -41.858  -5.950 -33.343  0.00  0.00    +0.000 A 
ATOM     15  C   UNL     1     -41.235  -5.438 -32.194  0.00  0.00    +0.000 A 
ATOM     16  C   UNL     1     -42.014  -5.074 -31.090  0.00  0.00    +0.000 A 
ATOM     17  C   UNL     1     -43.403  -5.218 -31.133  0.00  0.00    +0.000 A 
BRANCH  15  18
ATOM     18  C   UNL     1     -39.749  -5.272 -32.123  0.00  0.00    +0.000 C 
ATOM     19  C   UNL     1     -39.285  -4.133 -33.010  0.00  0.00    +0.000 C 
ATOM     20  C   UNL     1     -39.037  -6.556 -32.505  0.00  0.00    +0.000 C 
ENDBRANCH  15  18
ENDBRANCH   6  12
BRANCH   2  21
ATOM     21  O   UNL     1     -47.755  -3.609 -30.499  0.00  0.00    +0.000 OA
ATOM     22  H   UNL     1     -48.665  -3.750 -30.328  0.00  0.00    +0.000 HD
ENDBRANCH   2  21
BRANCH   1  23
ATOM     23  C   UNL     1     -46.075  -3.355 -32.959  0.00  0.00    +0.000 C 
ATOM     24  O   UNL     1     -47.018  -3.024 -33.729  0.00  0.00    +0.000 OA
BRANCH  23  29
ATOM     25  C   UNL     1     -41.292  -0.123 -32.802  0.00  0.00    +0.000 C 
ATOM     26  C   UNL     1     -42.525  -0.951 -32.839  0.00  0.00    +0.000 A 
ATOM     27  C   UNL     1     -43.556  -0.710 -31.928  0.00  0.00    +0.000 A 
ATOM     28  C   UNL     1     -44.716  -1.490 -31.965  0.00  0.00    +0.000 A 
ATOM     29  C   UNL     1     -44.860  -2.511 -32.916  0.00  0.00    +0.000 A 
ATOM     30  C   UNL     1     -43.812  -2.754 -33.817  0.00  0.00    +0.000 A 
ATOM     31  C   UNL     1     -42.651  -1.975 -33.782  0.00  0.00    +0.000 A 
ENDBRANCH  23  29
ENDBRANCH   1  23
TORSDOF 5
ENDMDL
MODEL 3
REMARK VINA RESULT:      -6.5     10.406     14.807
REMARK  Name = ZINC000019138008
REMARK  5 active torsions:
REMARK  status: ('A' for Active; 'I' for Inactive)
REMARK    1  A    between atoms: C_1  and  C_23
REMARK    2  A    between atoms: C_2  and  O_3
REMARK    3  A    between atoms: C_7  and  C_9
REMARK    4  A    between atoms: C_12  and  C_15
REMARK    5  A    between atoms: C_23  and  C_29
REMARK                            x       y       z     vdW  Elec       q    Type
REMARK                         _______ _______ _______ _____ _____    ______ ____
ROOT
ATOM      1  C   UNL     1     -45.910  -4.920 -33.258  0.00  0.00    +0.000 C 
ATOM      2  C   UNL     1     -46.493  -5.761 -34.109  0.00  0.00    +0.000 C 
ATOM      3  C   UNL     1     -46.226  -7.112 -33.686  0.00  0.00    +0.000 C 
ATOM      4  O   UNL     1     -46.612  -8.154 -34.277  0.00  0.00    +0.000 OA
ATOM      5  N   UNL     1     -45.444  -7.096 -32.503  0.00  0.00    +0.000 N 
ATOM      6  C   UNL     1     -45.216  -5.693 -32.150  0.00  0.00    +0.000 C 
ATOM      7  C   UNL     1     -44.831  -8.231 -31.876  0.00  0.00    +0.000 A 
ATOM      8  N   UNL     1     -43.903  -9.006 -32.472  0.00  0.00    +0.000 NA
ATOM      9  N   UNL     1     -43.478 -10.002 -31.694  0.00  0.00    +0.000 NA
ATOM     10  C   UNL     1     -44.056 -10.040 -30.470  0.00  0.00    +0.000 A 
ATOM     11  S   UNL     1     -45.161  -8.774 -30.321  0.00  0.00    +0.000 S 
ENDROOT
BRANCH   6  12
ATOM     12  C   UNL     1     -45.819  -5.378 -30.809  0.00  0.00    +0.000 A 
ATOM     13  C   UNL     1     -45.013  -5.446 -29.668  0.00  0.00    +0.000 A 
ATOM     14  C   UNL     1     -45.548  -5.153 -28.411  0.00  0.00    +0.000 A 
ATOM     15  C   UNL     1     -46.898  -4.791 -28.285  0.00  0.00    +0.000 A 
ATOM     16  C   UNL     1     -47.704  -4.724 -29.427  0.00  0.00    +0.000 A 
ATOM     17  C   UNL     1     -47.168  -5.016 -30.683  0.00  0.00    +0.000 A 
BRANCH  15  18
ATOM     18  C   UNL     1     -47.497  -4.471 -26.951  0.00  0.00    +0.000 C 
ATOM     19  C   UNL     1     -47.321  -3.004 -26.611  0.00  0.00    +0.000 C 
ATOM     20  C   UNL     1     -46.895  -5.337 -25.860  0.00  0.00    +0.000 C 
ENDBRANCH  15  18
ENDBRANCH   6  12
BRANCH   2  21
ATOM     21  O   UNL     1     -47.224  -5.402 -35.236  0.00  0.00    +0.000 OA
ATOM     22  H   UNL     1     -46.824  -5.430 -36.083  0.00  0.00    +0.000 HD
ENDBRANCH   2  21
BRANCH   1  23
ATOM     23  C   UNL     1     -45.965  -3.441 -33.363  0.00  0.00    +0.000 C 
ATOM     24  O   UNL     1     -47.066  -2.886 -33.627  0.00  0.00    +0.000 OA
BRANCH  23  29
ATOM     25  C   UNL     1     -41.266  -0.188 -32.536  0.00  0.00    +0.000 C 
ATOM     26  C   UNL     1     -42.478  -1.021 -32.747  0.00  0.00    +0.000 A 
ATOM     27  C   UNL     1     -43.693  -0.646 -32.169  0.00  0.00    +0.000 A 
ATOM     28  C   UNL     1     -44.833  -1.431 -32.369  0.00  0.00    +0.000 A 
ATOM     29  C   UNL     1     -44.771  -2.592 -33.153  0.00  0.00    +0.000 A 
ATOM     30  C   UNL     1     -43.542  -2.967 -33.718  0.00  0.00    +0.000 A 
ATOM     31  C   UNL     1     -42.401  -2.183 -33.519  0.00  0.00    +0.000 A 
ENDBRANCH  23  29
ENDBRANCH   1  23
TORSDOF 5
ENDMDL
