MODEL 1
REMARK VINA RESULT:      -6.9      0.000      0.000
REMARK  Name = ZINC000002155366 PubChem-1804311
REMARK  7 active torsions:
REMARK  status: ('A' for Active; 'I' for Inactive)
REMARK    1  A    between atoms: C_2  and  C_3
REMARK    2  A    between atoms: C_3  and  C_4
REMARK    3  A    between atoms: C_4  and  CA_5
REMARK    4  A    between atoms: CA_5  and  C_6
REMARK    5  A    between atoms: CA_5  and  N_32
REMARK    6  A    between atoms: C_7  and  C_8
REMARK    7  A    between atoms: C_8  and  C_9
REMARK                            x       y       z     vdW  Elec       q    Type
REMARK                         _______ _______ _______ _____ _____    ______ ____
ROOT
ATOM      1  C   UNL     1     -43.364 -19.232 -24.564  0.00  0.00    +0.000 A 
ATOM      2  C   UNL     1     -44.258 -18.171 -24.790  0.00  0.00    +0.000 A 
ATOM      3  C   UNL     1     -44.040 -17.315 -25.881  0.00  0.00    +0.000 A 
ATOM      4  C   UNL     1     -42.914 -17.557 -26.724  0.00  0.00    +0.000 A 
ATOM      5  C   UNL     1     -42.662 -16.721 -27.835  0.00  0.00    +0.000 A 
ATOM      6  C   UNL     1     -43.542 -15.666 -28.070  0.00  0.00    +0.000 A 
ATOM      7  C   UNL     1     -44.619 -15.432 -27.250  0.00  0.00    +0.000 A 
ATOM      8  C   UNL     1     -44.907 -16.233 -26.152  0.00  0.00    +0.000 A 
ATOM      9  C   UNL     1     -45.260 -14.333 -27.763  0.00  0.00    +0.000 A 
ATOM     10  C   UNL     1     -44.536 -13.982 -28.889  0.00  0.00    +0.000 A 
ATOM     11  C   UNL     1     -44.887 -12.816 -29.758  0.00  0.00    +0.000 C 
ATOM     12  C   UNL     1     -46.350 -12.403 -29.533  0.00  0.00    +0.000 C 
ATOM     13  C   UNL     1     -46.685 -12.321 -28.035  0.00  0.00    +0.000 C 
ATOM     14  C   UNL     1     -46.547 -13.690 -27.354  0.00  0.00    +0.000 C 
ATOM     15  C   UNL     1     -41.498 -16.956 -28.737  0.00  0.00    +0.000 C 
ATOM     16  C   UNL     1     -42.278 -19.403 -25.440  0.00  0.00    +0.000 A 
ATOM     17  C   UNL     1     -45.426 -17.956 -23.874  0.00  0.00    +0.000 C 
ATOM     18  O   UNL     1     -43.502 -14.786 -29.049  0.00  0.00    +0.000 OA
ATOM     19  O   UNL     1     -42.099 -18.575 -26.465  0.00  0.00    +0.000 OA
ATOM     20  O   UNL     1     -41.461 -20.345 -25.265  0.00  0.00    +0.000 OA
ENDROOT
BRANCH   1  21
ATOM     21  C   UNL     1     -43.575 -20.192 -23.428  0.00  0.00    +0.000 C 
BRANCH  21  22
ATOM     22  C   UNL     1     -43.060 -19.614 -22.155  0.00  0.00    +0.000 C 
ATOM     23  O   UNL     1     -42.052 -18.859 -22.175  0.00  0.00    +0.000 OA
ATOM     24  N   UNL     1     -43.694 -19.947 -20.920  0.00  0.00    +0.000 NA
BRANCH  24  25
ATOM     25  CA  UNL     1     -43.204 -19.455 -19.641  0.00  0.00    +0.000 C 
BRANCH  25  26
ATOM     26  C   UNL     1     -42.374 -20.506 -18.982  0.00  0.00    +0.000 C 
ATOM     27  OXT UNL     1     -41.136 -20.340 -18.825  0.00  0.00    +0.000 OA
ATOM     28  O   UNL     1     -42.976 -21.673 -18.530  0.00  0.00    +0.000 OA
ENDBRANCH  25  26
BRANCH  25  29
ATOM     29  C   UNL     1     -44.368 -19.057 -18.744  0.00  0.00    +0.000 C 
BRANCH  29  30
ATOM     30  C   UNL     1     -45.706 -19.343 -19.414  0.00  0.00    +0.000 C 
BRANCH  30  32
ATOM     31  C   UNL     1     -45.839 -16.996 -20.255  0.00  0.00    +0.000 C 
ATOM     32  C   UNL     1     -46.569 -18.093 -19.503  0.00  0.00    +0.000 C 
ENDBRANCH  30  32
ENDBRANCH  29  30
ENDBRANCH  25  29
ENDBRANCH  24  25
ENDBRANCH  21  22
ENDBRANCH   1  21
TORSDOF 7
ENDMDL
MODEL 2
REMARK VINA RESULT:      -6.7     11.682     15.418
REMARK  Name = ZINC000002155366 PubChem-1804311
REMARK  7 active torsions:
REMARK  status: ('A' for Active; 'I' for Inactive)
REMARK    1  A    between atoms: C_2  and  C_3
REMARK    2  A    between atoms: C_3  and  C_4
REMARK    3  A    between atoms: C_4  and  CA_5
REMARK    4  A    between atoms: CA_5  and  C_6
REMARK    5  A    between atoms: CA_5  and  N_32
REMARK    6  A    between atoms: C_7  and  C_8
REMARK    7  A    between atoms: C_8  and  C_9
REMARK                            x       y       z     vdW  Elec       q    Type
REMARK                         _______ _______ _______ _____ _____    ______ ____
ROOT
ATOM      1  C   UNL     1     -47.067  -5.741 -29.280  0.00  0.00    +0.000 A 
ATOM      2  C   UNL     1     -46.753  -6.355 -28.056  0.00  0.00    +0.000 A 
ATOM      3  C   UNL     1     -46.833  -5.602 -26.874  0.00  0.00    +0.000 A 
ATOM      4  C   UNL     1     -47.234  -4.235 -26.962  0.00  0.00    +0.000 A 
ATOM      5  C   UNL     1     -47.331  -3.444 -25.795  0.00  0.00    +0.000 A 
ATOM      6  C   UNL     1     -47.024  -4.042 -24.574  0.00  0.00    +0.000 A 
ATOM      7  C   UNL     1     -46.630  -5.356 -24.496  0.00  0.00    +0.000 A 
ATOM      8  C   UNL     1     -46.527  -6.170 -25.617  0.00  0.00    +0.000 A 
ATOM      9  C   UNL     1     -46.408  -5.612 -23.166  0.00  0.00    +0.000 A 
ATOM     10  C   UNL     1     -46.710  -4.430 -22.513  0.00  0.00    +0.000 A 
ATOM     11  C   UNL     1     -46.595  -4.261 -21.031  0.00  0.00    +0.000 C 
ATOM     12  C   UNL     1     -46.589  -5.631 -20.336  0.00  0.00    +0.000 C 
ATOM     13  C   UNL     1     -45.629  -6.609 -21.033  0.00  0.00    +0.000 C 
ATOM     14  C   UNL     1     -46.070  -6.895 -22.476  0.00  0.00    +0.000 C 
ATOM     15  C   UNL     1     -47.756  -2.016 -25.856  0.00  0.00    +0.000 C 
ATOM     16  C   UNL     1     -47.453  -4.390 -29.283  0.00  0.00    +0.000 A 
ATOM     17  C   UNL     1     -46.334  -7.795 -28.015  0.00  0.00    +0.000 C 
ATOM     18  O   UNL     1     -47.064  -3.497 -23.376  0.00  0.00    +0.000 OA
ATOM     19  O   UNL     1     -47.519  -3.703 -28.146  0.00  0.00    +0.000 OA
ATOM     20  O   UNL     1     -47.741  -3.812 -30.364  0.00  0.00    +0.000 OA
ENDROOT
BRANCH   1  21
ATOM     21  C   UNL     1     -47.026  -6.516 -30.567  0.00  0.00    +0.000 C 
BRANCH  21  22
ATOM     22  C   UNL     1     -45.669  -6.439 -31.178  0.00  0.00    +0.000 C 
ATOM     23  O   UNL     1     -45.215  -7.426 -31.815  0.00  0.00    +0.000 OA
ATOM     24  N   UNL     1     -44.883  -5.259 -31.009  0.00  0.00    +0.000 NA
BRANCH  24  25
ATOM     25  CA  UNL     1     -43.533  -5.147 -31.539  0.00  0.00    +0.000 C 
BRANCH  25  26
ATOM     26  C   UNL     1     -42.547  -5.555 -30.495  0.00  0.00    +0.000 C 
ATOM     27  OXT UNL     1     -42.877  -5.588 -29.280  0.00  0.00    +0.000 OA
ATOM     28  O   UNL     1     -41.258  -5.910 -30.869  0.00  0.00    +0.000 OA
ENDBRANCH  25  26
BRANCH  25  29
ATOM     29  C   UNL     1     -43.260  -3.721 -31.997  0.00  0.00    +0.000 C 
BRANCH  29  30
ATOM     30  C   UNL     1     -44.484  -2.834 -31.808  0.00  0.00    +0.000 C 
BRANCH  30  32
ATOM     31  C   UNL     1     -43.709  -0.772 -32.981  0.00  0.00    +0.000 C 
ATOM     32  C   UNL     1     -44.704  -1.916 -33.000  0.00  0.00    +0.000 C 
ENDBRANCH  30  32
ENDBRANCH  29  30
ENDBRANCH  25  29
ENDBRANCH  24  25
ENDBRANCH  21  22
ENDBRANCH   1  21
TORSDOF 7
ENDMDL
MODEL 3
REMARK VINA RESULT:      -6.7      8.785     15.488
REMARK  Name = ZINC000002155366 PubChem-1804311
REMARK  7 active torsions:
REMARK  status: ('A' for Active; 'I' for Inactive)
REMARK    1  A    between atoms: C_2  and  C_3
REMARK    2  A    between atoms: C_3  and  C_4
REMARK    3  A    between atoms: C_4  and  CA_5
REMARK    4  A    between atoms: CA_5  and  C_6
REMARK    5  A    between atoms: CA_5  and  N_32
REMARK    6  A    between atoms: C_7  and  C_8
REMARK    7  A    between atoms: C_8  and  C_9
REMARK                            x       y       z     vdW  Elec       q    Type
REMARK                         _______ _______ _______ _____ _____    ______ ____
ROOT
ATOM      1  C   UNL     1     -46.807  -5.137 -31.763  0.00  0.00    +0.000 A 
ATOM      2  C   UNL     1     -46.756  -6.541 -31.737  0.00  0.00    +0.000 A 
ATOM      3  C   UNL     1     -46.647  -7.198 -30.502  0.00  0.00    +0.000 A 
ATOM      4  C   UNL     1     -46.594  -6.410 -29.312  0.00  0.00    +0.000 A 
ATOM      5  C   UNL     1     -46.489  -7.033 -28.049  0.00  0.00    +0.000 A 
ATOM      6  C   UNL     1     -46.440  -8.425 -28.010  0.00  0.00    +0.000 A 
ATOM      7  C   UNL     1     -46.482  -9.179 -29.158  0.00  0.00    +0.000 A 
ATOM      8  C   UNL     1     -46.591  -8.607 -30.420  0.00  0.00    +0.000 A 
ATOM      9  C   UNL     1     -46.410 -10.490 -28.760  0.00  0.00    +0.000 A 
ATOM     10  C   UNL     1     -46.354 -10.448 -27.378  0.00  0.00    +0.000 A 
ATOM     11  C   UNL     1     -46.257 -11.673 -26.525  0.00  0.00    +0.000 C 
ATOM     12  C   UNL     1     -46.713 -12.911 -27.314  0.00  0.00    +0.000 C 
ATOM     13  C   UNL     1     -46.079 -12.948 -28.714  0.00  0.00    +0.000 C 
ATOM     14  C   UNL     1     -46.524 -11.747 -29.562  0.00  0.00    +0.000 C 
ATOM     15  C   UNL     1     -46.440  -6.236 -26.789  0.00  0.00    +0.000 C 
ATOM     16  C   UNL     1     -46.748  -4.433 -30.548  0.00  0.00    +0.000 A 
ATOM     17  C   UNL     1     -46.813  -7.325 -33.015  0.00  0.00    +0.000 C 
ATOM     18  O   UNL     1     -46.359  -9.201 -26.948  0.00  0.00    +0.000 OA
ATOM     19  O   UNL     1     -46.645  -5.084 -29.393  0.00  0.00    +0.000 OA
ATOM     20  O   UNL     1     -46.792  -3.174 -30.538  0.00  0.00    +0.000 OA
ENDROOT
BRANCH   1  21
ATOM     21  C   UNL     1     -46.955  -4.392 -33.059  0.00  0.00    +0.000 C 
BRANCH  21  22
ATOM     22  C   UNL     1     -45.716  -3.621 -33.361  0.00  0.00    +0.000 C 
ATOM     23  O   UNL     1     -45.804  -2.468 -33.862  0.00  0.00    +0.000 OA
ATOM     24  N   UNL     1     -44.438  -4.209 -33.111  0.00  0.00    +0.000 NA
BRANCH  24  25
ATOM     25  CA  UNL     1     -43.196  -3.525 -33.435  0.00  0.00    +0.000 C 
BRANCH  25  26
ATOM     26  C   UNL     1     -42.201  -4.508 -33.958  0.00  0.00    +0.000 C 
ATOM     27  OXT UNL     1     -41.764  -5.430 -33.221  0.00  0.00    +0.000 OA
ATOM     28  O   UNL     1     -41.762  -4.407 -35.271  0.00  0.00    +0.000 OA
ENDBRANCH  25  26
BRANCH  25  29
ATOM     29  C   UNL     1     -42.645  -2.816 -32.205  0.00  0.00    +0.000 C 
BRANCH  29  30
ATOM     30  C   UNL     1     -42.044  -1.464 -32.568  0.00  0.00    +0.000 C 
BRANCH  30  32
ATOM     31  C   UNL     1     -44.176  -0.290 -32.016  0.00  0.00    +0.000 C 
ATOM     32  C   UNL     1     -43.102  -0.493 -33.068  0.00  0.00    +0.000 C 
ENDBRANCH  30  32
ENDBRANCH  29  30
ENDBRANCH  25  29
ENDBRANCH  24  25
ENDBRANCH  21  22
ENDBRANCH   1  21
TORSDOF 7
ENDMDL
