MODEL 1
REMARK VINA RESULT:      -6.5      0.000      0.000
REMARK  Name = ZINC000009380298 ZINC09380298 MolPort-002-580-065 PubChem-1960546
REMARK  4 active torsions:
REMARK  status: ('A' for Active; 'I' for Inactive)
REMARK    1  A    between atoms: N_1  and  C_29
REMARK    2  A    between atoms: C_8  and  C_12
REMARK    3  A    between atoms: C_25  and  O_32
REMARK    4  A    between atoms: C_28  and  O_33
REMARK                            x       y       z     vdW  Elec       q    Type
REMARK                         _______ _______ _______ _____ _____    ______ ____
ROOT
ATOM      1  N   UNL     1     -45.867  -6.262 -31.005  0.00  0.00    +0.000 N 
ATOM      2  C   UNL     1     -46.805  -7.145 -31.660  0.00  0.00    +0.000 C 
ATOM      3  S   UNL     1     -47.631  -8.296 -30.833  0.00  0.00    +0.000 S 
ATOM      4  N   UNL     1     -46.986  -7.071 -33.075  0.00  0.00    +0.000 N 
ATOM      5  C   UNL     1     -46.175  -6.226 -33.889  0.00  0.00    +0.000 C 
ATOM      6  O   UNL     1     -46.363  -6.205 -35.136  0.00  0.00    +0.000 OA
ATOM      7  C   UNL     1     -45.111  -5.417 -33.271  0.00  0.00    +0.000 C 
ATOM      8  C   UNL     1     -44.217  -4.808 -34.071  0.00  0.00    +0.000 C 
ATOM      9  C   UNL     1     -45.119  -5.314 -31.791  0.00  0.00    +0.000 C 
ATOM     10  O   UNL     1     -44.544  -4.346 -31.218  0.00  0.00    +0.000 OA
ATOM     11  H   UNL     1     -47.687  -7.618 -33.499  0.00  0.00    +0.000 HD
ENDROOT
BRANCH   8  12
ATOM     12  C   UNL     1     -42.986  -4.103 -33.673  0.00  0.00    +0.000 A 
ATOM     13  C   UNL     1     -41.748  -4.761 -33.624  0.00  0.00    +0.000 A 
ATOM     14  C   UNL     1     -40.585  -4.060 -33.300  0.00  0.00    +0.000 A 
ATOM     15  C   UNL     1     -40.649  -2.673 -33.070  0.00  0.00    +0.000 A 
ATOM     16  N   UNL     1     -39.457  -1.948 -32.720  0.00  0.00    +0.000 N 
ATOM     17  C   UNL     1     -39.554  -0.577 -32.232  0.00  0.00    +0.000 C 
ATOM     18  C   UNL     1     -40.612   0.176 -33.031  0.00  0.00    +0.000 C 
ATOM     19  C   UNL     1     -41.971  -0.520 -32.911  0.00  0.00    +0.000 C 
ATOM     20  C   UNL     1     -41.881  -2.001 -33.162  0.00  0.00    +0.000 A 
ATOM     21  C   UNL     1     -43.041  -2.720 -33.464  0.00  0.00    +0.000 A 
ATOM     22  C   UNL     1     -38.147  -2.584 -32.826  0.00  0.00    +0.000 C 
ATOM     23  C   UNL     1     -38.245  -4.047 -32.400  0.00  0.00    +0.000 C 
ATOM     24  C   UNL     1     -39.265  -4.776 -33.276  0.00  0.00    +0.000 C 
ENDBRANCH   8  12
BRANCH   1  29
ATOM     25  C   UNL     1     -46.428  -5.504 -27.374  0.00  0.00    +0.000 A 
ATOM     26  C   UNL     1     -45.378  -6.215 -26.788  0.00  0.00    +0.000 A 
ATOM     27  C   UNL     1     -44.492  -6.947 -27.582  0.00  0.00    +0.000 A 
ATOM     28  C   UNL     1     -44.645  -6.979 -28.978  0.00  0.00    +0.000 A 
ATOM     29  C   UNL     1     -45.703  -6.268 -29.573  0.00  0.00    +0.000 A 
ATOM     30  C   UNL     1     -46.583  -5.532 -28.768  0.00  0.00    +0.000 A 
BRANCH  25  32
ATOM     31  C   UNL     1     -47.309  -3.362 -26.507  0.00  0.00    +0.000 C 
ATOM     32  O   UNL     1     -47.299  -4.782 -26.554  0.00  0.00    +0.000 OA
ENDBRANCH  25  32
BRANCH  28  33
ATOM     33  O   UNL     1     -43.766  -7.712 -29.784  0.00  0.00    +0.000 OA
ATOM     34  C   UNL     1     -43.876  -9.117 -29.965  0.00  0.00    +0.000 C 
ENDBRANCH  28  33
ENDBRANCH   1  29
TORSDOF 4
ENDMDL
MODEL 2
REMARK VINA RESULT:      -6.5      2.810      7.149
REMARK  Name = ZINC000009380298 ZINC09380298 MolPort-002-580-065 PubChem-1960546
REMARK  4 active torsions:
REMARK  status: ('A' for Active; 'I' for Inactive)
REMARK    1  A    between atoms: N_1  and  C_29
REMARK    2  A    between atoms: C_8  and  C_12
REMARK    3  A    between atoms: C_25  and  O_32
REMARK    4  A    between atoms: C_28  and  O_33
REMARK                            x       y       z     vdW  Elec       q    Type
REMARK                         _______ _______ _______ _____ _____    ______ ____
ROOT
ATOM      1  N   UNL     1     -45.605  -5.516 -32.124  0.00  0.00    +0.000 N 
ATOM      2  C   UNL     1     -46.362  -5.996 -33.259  0.00  0.00    +0.000 C 
ATOM      3  S   UNL     1     -46.939  -4.976 -34.406  0.00  0.00    +0.000 S 
ATOM      4  N   UNL     1     -46.679  -7.384 -33.370  0.00  0.00    +0.000 N 
ATOM      5  C   UNL     1     -46.372  -8.307 -32.327  0.00  0.00    +0.000 C 
ATOM      6  O   UNL     1     -46.683  -9.521 -32.466  0.00  0.00    +0.000 OA
ATOM      7  C   UNL     1     -45.729  -7.828 -31.092  0.00  0.00    +0.000 C 
ATOM      8  C   UNL     1     -45.655  -8.660 -30.038  0.00  0.00    +0.000 C 
ATOM      9  C   UNL     1     -45.179  -6.449 -31.112  0.00  0.00    +0.000 C 
ATOM     10  O   UNL     1     -44.274  -6.114 -30.298  0.00  0.00    +0.000 OA
ATOM     11  H   UNL     1     -47.120  -7.712 -34.188  0.00  0.00    +0.000 HD
ENDROOT
BRANCH   8  12
ATOM     12  C   UNL     1     -45.219  -8.342 -28.667  0.00  0.00    +0.000 A 
ATOM     13  C   UNL     1     -43.877  -8.466 -28.278  0.00  0.00    +0.000 A 
ATOM     14  C   UNL     1     -43.475  -8.103 -26.991  0.00  0.00    +0.000 A 
ATOM     15  C   UNL     1     -44.416  -7.564 -26.094  0.00  0.00    +0.000 A 
ATOM     16  N   UNL     1     -44.012  -7.204 -24.761  0.00  0.00    +0.000 N 
ATOM     17  C   UNL     1     -45.019  -6.891 -23.754  0.00  0.00    +0.000 C 
ATOM     18  C   UNL     1     -46.134  -6.065 -24.385  0.00  0.00    +0.000 C 
ATOM     19  C   UNL     1     -46.776  -6.829 -25.548  0.00  0.00    +0.000 C 
ATOM     20  C   UNL     1     -45.754  -7.396 -26.495  0.00  0.00    +0.000 A 
ATOM     21  C   UNL     1     -46.145  -7.785 -27.779  0.00  0.00    +0.000 A 
ATOM     22  C   UNL     1     -42.598  -7.173 -24.401  0.00  0.00    +0.000 C 
ATOM     23  C   UNL     1     -41.863  -8.324 -25.084  0.00  0.00    +0.000 C 
ATOM     24  C   UNL     1     -42.030  -8.220 -26.601  0.00  0.00    +0.000 C 
ENDBRANCH   8  12
BRANCH   1  29
ATOM     25  C   UNL     1     -43.668  -2.335 -32.566  0.00  0.00    +0.000 A 
ATOM     26  C   UNL     1     -44.404  -1.461 -31.764  0.00  0.00    +0.000 A 
ATOM     27  C   UNL     1     -45.537  -1.913 -31.084  0.00  0.00    +0.000 A 
ATOM     28  C   UNL     1     -45.953  -3.249 -31.199  0.00  0.00    +0.000 A 
ATOM     29  C   UNL     1     -45.217  -4.134 -32.010  0.00  0.00    +0.000 A 
ATOM     30  C   UNL     1     -44.078  -3.672 -32.683  0.00  0.00    +0.000 A 
BRANCH  25  32
ATOM     31  C   UNL     1     -41.847  -0.683 -32.828  0.00  0.00    +0.000 C 
ATOM     32  O   UNL     1     -42.539  -1.854 -33.234  0.00  0.00    +0.000 OA
ENDBRANCH  25  32
BRANCH  28  33
ATOM     33  O   UNL     1     -47.089  -3.713 -30.526  0.00  0.00    +0.000 OA
ATOM     34  C   UNL     1     -47.058  -4.165 -29.179  0.00  0.00    +0.000 C 
ENDBRANCH  28  33
ENDBRANCH   1  29
TORSDOF 4
ENDMDL
MODEL 3
REMARK VINA RESULT:      -6.4      4.208      7.011
REMARK  Name = ZINC000009380298 ZINC09380298 MolPort-002-580-065 PubChem-1960546
REMARK  4 active torsions:
REMARK  status: ('A' for Active; 'I' for Inactive)
REMARK    1  A    between atoms: N_1  and  C_29
REMARK    2  A    between atoms: C_8  and  C_12
REMARK    3  A    between atoms: C_25  and  O_32
REMARK    4  A    between atoms: C_28  and  O_33
REMARK                            x       y       z     vdW  Elec       q    Type
REMARK                         _______ _______ _______ _____ _____    ______ ____
ROOT
ATOM      1  N   UNL     1     -46.246  -7.322 -34.712  0.00  0.00    +0.000 N 
ATOM      2  C   UNL     1     -46.718  -6.458 -35.771  0.00  0.00    +0.000 C 
ATOM      3  S   UNL     1     -46.572  -6.869 -37.352  0.00  0.00    +0.000 S 
ATOM      4  N   UNL     1     -47.272  -5.180 -35.455  0.00  0.00    +0.000 N 
ATOM      5  C   UNL     1     -47.268  -4.671 -34.122  0.00  0.00    +0.000 C 
ATOM      6  O   UNL     1     -47.756  -3.532 -33.894  0.00  0.00    +0.000 OA
ATOM      7  C   UNL     1     -46.664  -5.466 -33.038  0.00  0.00    +0.000 C 
ATOM      8  C   UNL     1     -46.466  -4.881 -31.844  0.00  0.00    +0.000 C 
ATOM      9  C   UNL     1     -46.339  -6.882 -33.344  0.00  0.00    +0.000 C 
ATOM     10  O   UNL     1     -46.228  -7.724 -32.410  0.00  0.00    +0.000 OA
ATOM     11  H   UNL     1     -47.666  -4.636 -36.175  0.00  0.00    +0.000 HD
ENDROOT
BRANCH   8  12
ATOM     12  C   UNL     1     -45.730  -5.422 -30.687  0.00  0.00    +0.000 A 
ATOM     13  C   UNL     1     -44.336  -5.573 -30.710  0.00  0.00    +0.000 A 
ATOM     14  C   UNL     1     -43.654  -6.033 -29.582  0.00  0.00    +0.000 A 
ATOM     15  C   UNL     1     -44.366  -6.301 -28.399  0.00  0.00    +0.000 A 
ATOM     16  N   UNL     1     -43.671  -6.791 -27.239  0.00  0.00    +0.000 N 
ATOM     17  C   UNL     1     -44.424  -7.312 -26.104  0.00  0.00    +0.000 C 
ATOM     18  C   UNL     1     -45.649  -6.436 -25.858  0.00  0.00    +0.000 C 
ATOM     19  C   UNL     1     -46.539  -6.397 -27.104  0.00  0.00    +0.000 C 
ATOM     20  C   UNL     1     -45.759  -6.108 -28.357  0.00  0.00    +0.000 A 
ATOM     21  C   UNL     1     -46.431  -5.669 -29.501  0.00  0.00    +0.000 A 
ATOM     22  C   UNL     1     -42.212  -6.795 -27.198  0.00  0.00    +0.000 C 
ATOM     23  C   UNL     1     -41.656  -7.161 -28.572  0.00  0.00    +0.000 C 
ATOM     24  C   UNL     1     -42.158  -6.165 -29.618  0.00  0.00    +0.000 C 
ENDBRANCH   8  12
BRANCH   1  29
ATOM     25  C   UNL     1     -46.149 -11.012 -35.376  0.00  0.00    +0.000 A 
ATOM     26  C   UNL     1     -44.774 -11.230 -35.476  0.00  0.00    +0.000 A 
ATOM     27  C   UNL     1     -43.880 -10.166 -35.333  0.00  0.00    +0.000 A 
ATOM     28  C   UNL     1     -44.351  -8.866 -35.088  0.00  0.00    +0.000 A 
ATOM     29  C   UNL     1     -45.737  -8.641 -34.990  0.00  0.00    +0.000 A 
ATOM     30  C   UNL     1     -46.625  -9.717 -35.129  0.00  0.00    +0.000 A 
BRANCH  25  32
ATOM     31  C   UNL     1     -47.272 -12.713 -36.779  0.00  0.00    +0.000 C 
ATOM     32  O   UNL     1     -47.020 -12.096 -35.524  0.00  0.00    +0.000 OA
ENDBRANCH  25  32
BRANCH  28  33
ATOM     33  O   UNL     1     -43.465  -7.791 -34.947  0.00  0.00    +0.000 OA
ATOM     34  C   UNL     1     -42.744  -7.539 -33.749  0.00  0.00    +0.000 C 
ENDBRANCH  28  33
ENDBRANCH   1  29
TORSDOF 4
ENDMDL
