MODEL 1
REMARK VINA RESULT:      -6.9      0.000      0.000
REMARK  Name = ZINC000015693488 ZINC15693488 PubChem-26752795
REMARK  5 active torsions:
REMARK  status: ('A' for Active; 'I' for Inactive)
REMARK    1  A    between atoms: C_1  and  C_19
REMARK    2  A    between atoms: C_12  and  C_15
REMARK    3  A    between atoms: C_19  and  O_21
REMARK    4  A    between atoms: O_21  and  C_22
REMARK    5  A    between atoms: C_22  and  C_29
REMARK                            x       y       z     vdW  Elec       q    Type
REMARK                         _______ _______ _______ _____ _____    ______ ____
ROOT
ATOM      1  C   UNL     1     -44.882 -17.731 -23.421  0.00  0.00    +0.000 C 
ATOM      2  O   UNL     1     -45.076 -18.458 -24.433  0.00  0.00    +0.000 OA
ATOM      3  N   UNL     1     -45.042 -16.298 -23.505  0.00  0.00    +0.000 N 
ATOM      4  C   UNL     1     -45.035 -15.522 -22.259  0.00  0.00    +0.000 C 
ATOM      5  C   UNL     1     -45.970 -14.355 -22.337  0.00  0.00    +0.000 C 
ATOM      6  O   UNL     1     -46.473 -13.880 -21.287  0.00  0.00    +0.000 OA
ATOM      7  N   UNL     1     -46.231 -13.735 -23.597  0.00  0.00    +0.000 N 
ATOM      8  C   UNL     1     -45.747 -14.325 -24.803  0.00  0.00    +0.000 A 
ATOM      9  C   UNL     1     -45.154 -15.601 -24.769  0.00  0.00    +0.000 A 
ATOM     10  C   UNL     1     -44.686 -16.164 -25.967  0.00  0.00    +0.000 A 
ATOM     11  C   UNL     1     -44.814 -15.472 -27.174  0.00  0.00    +0.000 A 
ATOM     12  C   UNL     1     -45.400 -14.200 -27.203  0.00  0.00    +0.000 A 
ATOM     13  C   UNL     1     -45.881 -13.639 -26.013  0.00  0.00    +0.000 A 
ATOM     14  H   UNL     1     -46.747 -12.897 -23.633  0.00  0.00    +0.000 HD
ENDROOT
BRANCH  12  15
ATOM     15  C   UNL     1     -45.589 -13.484 -28.509  0.00  0.00    +0.000 C 
ATOM     16  F   UNL     1     -46.933 -13.222 -28.697  0.00  0.00    +0.000 F 
ATOM     17  F   UNL     1     -45.130 -14.261 -29.558  0.00  0.00    +0.000 F 
ATOM     18  F   UNL     1     -44.891 -12.289 -28.508  0.00  0.00    +0.000 F 
ENDBRANCH  12  15
BRANCH   1  19
ATOM     19  C   UNL     1     -44.521 -18.384 -22.119  0.00  0.00    +0.000 C 
ATOM     20  C   UNL     1     -43.640 -19.593 -22.371  0.00  0.00    +0.000 C 
BRANCH  19  21
ATOM     21  O   UNL     1     -45.694 -18.788 -21.422  0.00  0.00    +0.000 OA
BRANCH  21  22
ATOM     22  C   UNL     1     -45.778 -18.799 -20.025  0.00  0.00    +0.000 C 
ATOM     23  O   UNL     1     -45.661 -19.887 -19.399  0.00  0.00    +0.000 OA
BRANCH  22  29
ATOM     24  C   UNL     1     -44.242 -14.526 -17.702  0.00  0.00    +0.000 C 
ATOM     25  C   UNL     1     -45.296 -15.465 -18.187  0.00  0.00    +0.000 A 
ATOM     26  C   UNL     1     -46.631 -15.132 -17.955  0.00  0.00    +0.000 A 
ATOM     27  C   UNL     1     -47.652 -15.973 -18.388  0.00  0.00    +0.000 A 
ATOM     28  C   UNL     1     -47.342 -17.156 -19.057  0.00  0.00    +0.000 A 
ATOM     29  C   UNL     1     -46.011 -17.521 -19.305  0.00  0.00    +0.000 A 
ATOM     30  C   UNL     1     -44.969 -16.660 -18.863  0.00  0.00    +0.000 A 
ATOM     31  C   UNL     1     -43.526 -16.989 -19.100  0.00  0.00    +0.000 C 
ENDBRANCH  22  29
ENDBRANCH  21  22
ENDBRANCH  19  21
ENDBRANCH   1  19
TORSDOF 5
ENDMDL
MODEL 2
REMARK VINA RESULT:      -6.8      9.617     13.249
REMARK  Name = ZINC000015693488 ZINC15693488 PubChem-26752795
REMARK  5 active torsions:
REMARK  status: ('A' for Active; 'I' for Inactive)
REMARK    1  A    between atoms: C_1  and  C_19
REMARK    2  A    between atoms: C_12  and  C_15
REMARK    3  A    between atoms: C_19  and  O_21
REMARK    4  A    between atoms: O_21  and  C_22
REMARK    5  A    between atoms: C_22  and  C_29
REMARK                            x       y       z     vdW  Elec       q    Type
REMARK                         _______ _______ _______ _____ _____    ______ ____
ROOT
ATOM      1  C   UNL     1     -45.974  -6.655 -30.734  0.00  0.00    +0.000 C 
ATOM      2  O   UNL     1     -45.769  -6.070 -29.636  0.00  0.00    +0.000 OA
ATOM      3  N   UNL     1     -45.560  -6.049 -31.978  0.00  0.00    +0.000 N 
ATOM      4  C   UNL     1     -45.605  -6.862 -33.199  0.00  0.00    +0.000 C 
ATOM      5  C   UNL     1     -44.483  -6.517 -34.128  0.00  0.00    +0.000 C 
ATOM      6  O   UNL     1     -44.056  -7.374 -34.944  0.00  0.00    +0.000 OA
ATOM      7  N   UNL     1     -43.947  -5.194 -34.137  0.00  0.00    +0.000 N 
ATOM      8  C   UNL     1     -44.353  -4.247 -33.149  0.00  0.00    +0.000 A 
ATOM      9  C   UNL     1     -45.156  -4.661 -32.069  0.00  0.00    +0.000 A 
ATOM     10  C   UNL     1     -45.543  -3.714 -31.109  0.00  0.00    +0.000 A 
ATOM     11  C   UNL     1     -45.132  -2.383 -31.217  0.00  0.00    +0.000 A 
ATOM     12  C   UNL     1     -44.338  -1.973 -32.296  0.00  0.00    +0.000 A 
ATOM     13  C   UNL     1     -43.937  -2.917 -33.251  0.00  0.00    +0.000 A 
ATOM     14  H   UNL     1     -43.295  -4.934 -34.827  0.00  0.00    +0.000 HD
ENDROOT
BRANCH  12  15
ATOM     15  C   UNL     1     -43.850  -0.556 -32.380  0.00  0.00    +0.000 C 
ATOM     16  F   UNL     1     -43.841  -0.153 -33.702  0.00  0.00    +0.000 F 
ATOM     17  F   UNL     1     -42.568  -0.455 -31.868  0.00  0.00    +0.000 F 
ATOM     18  F   UNL     1     -44.680   0.283 -31.656  0.00  0.00    +0.000 F 
ENDBRANCH  12  15
BRANCH   1  19
ATOM     19  C   UNL     1     -46.618  -8.011 -30.723  0.00  0.00    +0.000 C 
ATOM     20  C   UNL     1     -47.620  -8.099 -29.588  0.00  0.00    +0.000 C 
BRANCH  19  21
ATOM     21  O   UNL     1     -45.636  -9.028 -30.569  0.00  0.00    +0.000 OA
BRANCH  21  22
ATOM     22  C   UNL     1     -45.787 -10.313 -31.105  0.00  0.00    +0.000 C 
ATOM     23  O   UNL     1     -45.923 -10.460 -32.350  0.00  0.00    +0.000 OA
BRANCH  22  29
ATOM     24  C   UNL     1     -43.621 -14.326 -28.821  0.00  0.00    +0.000 C 
ATOM     25  C   UNL     1     -44.772 -13.411 -29.082  0.00  0.00    +0.000 A 
ATOM     26  C   UNL     1     -45.972 -13.658 -28.414  0.00  0.00    +0.000 A 
ATOM     27  C   UNL     1     -47.075 -12.834 -28.622  0.00  0.00    +0.000 A 
ATOM     28  C   UNL     1     -46.982 -11.757 -29.502  0.00  0.00    +0.000 A 
ATOM     29  C   UNL     1     -45.792 -11.482 -30.190  0.00  0.00    +0.000 A 
ATOM     30  C   UNL     1     -44.666 -12.324 -29.975  0.00  0.00    +0.000 A 
ATOM     31  C   UNL     1     -43.362 -12.083 -30.674  0.00  0.00    +0.000 C 
ENDBRANCH  22  29
ENDBRANCH  21  22
ENDBRANCH  19  21
ENDBRANCH   1  19
TORSDOF 5
ENDMDL
MODEL 3
REMARK VINA RESULT:      -6.7     13.245     16.327
REMARK  Name = ZINC000015693488 ZINC15693488 PubChem-26752795
REMARK  5 active torsions:
REMARK  status: ('A' for Active; 'I' for Inactive)
REMARK    1  A    between atoms: C_1  and  C_19
REMARK    2  A    between atoms: C_12  and  C_15
REMARK    3  A    between atoms: C_19  and  O_21
REMARK    4  A    between atoms: O_21  and  C_22
REMARK    5  A    between atoms: C_22  and  C_29
REMARK                            x       y       z     vdW  Elec       q    Type
REMARK                         _______ _______ _______ _____ _____    ______ ____
ROOT
ATOM      1  C   UNL     1     -42.926  -4.724 -33.428  0.00  0.00    +0.000 C 
ATOM      2  O   UNL     1     -42.078  -4.829 -34.355  0.00  0.00    +0.000 OA
ATOM      3  N   UNL     1     -42.982  -3.532 -32.615  0.00  0.00    +0.000 N 
ATOM      4  C   UNL     1     -44.125  -3.357 -31.711  0.00  0.00    +0.000 C 
ATOM      5  C   UNL     1     -44.520  -1.917 -31.600  0.00  0.00    +0.000 C 
ATOM      6  O   UNL     1     -45.704  -1.611 -31.305  0.00  0.00    +0.000 OA
ATOM      7  N   UNL     1     -43.536  -0.895 -31.759  0.00  0.00    +0.000 N 
ATOM      8  C   UNL     1     -42.217  -1.227 -32.193  0.00  0.00    +0.000 A 
ATOM      9  C   UNL     1     -41.930  -2.537 -32.621  0.00  0.00    +0.000 A 
ATOM     10  C   UNL     1     -40.627  -2.842 -33.045  0.00  0.00    +0.000 A 
ATOM     11  C   UNL     1     -39.633  -1.860 -33.049  0.00  0.00    +0.000 A 
ATOM     12  C   UNL     1     -39.922  -0.559 -32.617  0.00  0.00    +0.000 A 
ATOM     13  C   UNL     1     -41.224  -0.245 -32.205  0.00  0.00    +0.000 A 
ATOM     14  H   UNL     1     -43.769   0.043 -31.568  0.00  0.00    +0.000 HD
ENDROOT
BRANCH  12  15
ATOM     15  C   UNL     1     -38.868   0.509 -32.676  0.00  0.00    +0.000 C 
ATOM     16  F   UNL     1     -39.364   1.604 -33.357  0.00  0.00    +0.000 F 
ATOM     17  F   UNL     1     -37.742   0.041 -33.332  0.00  0.00    +0.000 F 
ATOM     18  F   UNL     1     -38.503   0.897 -31.398  0.00  0.00    +0.000 F 
ENDBRANCH  12  15
BRANCH   1  19
ATOM     19  C   UNL     1     -43.903  -5.843 -33.210  0.00  0.00    +0.000 C 
ATOM     20  C   UNL     1     -43.207  -7.180 -33.383  0.00  0.00    +0.000 C 
BRANCH  19  21
ATOM     21  O   UNL     1     -44.983  -5.748 -34.132  0.00  0.00    +0.000 OA
BRANCH  21  22
ATOM     22  C   UNL     1     -46.320  -5.661 -33.724  0.00  0.00    +0.000 C 
ATOM     23  O   UNL     1     -47.162  -5.083 -34.463  0.00  0.00    +0.000 OA
BRANCH  22  29
ATOM     24  C   UNL     1     -47.456  -9.552 -30.630  0.00  0.00    +0.000 C 
ATOM     25  C   UNL     1     -47.265  -8.100 -30.918  0.00  0.00    +0.000 A 
ATOM     26  C   UNL     1     -47.473  -7.191 -29.878  0.00  0.00    +0.000 A 
ATOM     27  C   UNL     1     -47.307  -5.826 -30.094  0.00  0.00    +0.000 A 
ATOM     28  C   UNL     1     -46.933  -5.362 -31.354  0.00  0.00    +0.000 A 
ATOM     29  C   UNL     1     -46.717  -6.247 -32.419  0.00  0.00    +0.000 A 
ATOM     30  C   UNL     1     -46.886  -7.642 -32.197  0.00  0.00    +0.000 A 
ATOM     31  C   UNL     1     -46.667  -8.642 -33.291  0.00  0.00    +0.000 C 
ENDBRANCH  22  29
ENDBRANCH  21  22
ENDBRANCH  19  21
ENDBRANCH   1  19
TORSDOF 5
ENDMDL
