MODEL 1
REMARK VINA RESULT:      -5.8      0.000      0.000
REMARK  Name = ZINC000615451238 MolPort-044-610-126
REMARK  6 active torsions:
REMARK  status: ('A' for Active; 'I' for Inactive)
REMARK    1  A    between atoms: C_2  and  C_3
REMARK    2  A    between atoms: C_4  and  C_5
REMARK    3  A    between atoms: C_5  and  N_22
REMARK    4  A    between atoms: C_6  and  C_7
REMARK    5  A    between atoms: C_10  and  N_23
REMARK    6  A    between atoms: C_13  and  C_14
REMARK                            x       y       z     vdW  Elec       q    Type
REMARK                         _______ _______ _______ _____ _____    ______ ____
ROOT
ATOM      1  C   UNL     1     -46.930  -6.609 -30.440  0.00  0.00    +0.000 C 
ATOM      2  C   UNL     1     -47.286  -5.663 -29.284  0.00  0.00    +0.000 C 
ATOM      3  C   UNL     1     -46.236  -5.939 -28.285  0.00  0.00    +0.000 C 
ATOM      4  C   UNL     1     -45.692  -7.420 -30.018  0.00  0.00    +0.000 C 
ATOM      5  N   UNL     1     -45.306  -6.916 -28.709  0.00  0.00    +0.000 N 
ATOM      6  O   UNL     1     -46.173  -5.369 -27.163  0.00  0.00    +0.000 OA
ENDROOT
BRANCH   4   7
ATOM      7  C   UNL     1     -46.006  -8.886 -29.968  0.00  0.00    +0.000 A 
ATOM      8  C   UNL     1     -45.448  -9.918 -30.698  0.00  0.00    +0.000 A 
ATOM      9  C   UNL     1     -44.380  -9.813 -31.736  0.00  0.00    +0.000 C 
ATOM     10  C   UNL     1     -45.759 -12.393 -30.824  0.00  0.00    +0.000 C 
ATOM     11  C   UNL     1     -46.947  -9.478 -29.142  0.00  0.00    +0.000 A 
ATOM     12  N   UNL     1     -46.040 -11.061 -30.315  0.00  0.00    +0.000 N 
ATOM     13  N   UNL     1     -46.940 -10.808 -29.380  0.00  0.00    +0.000 NA
ENDBRANCH   4   7
BRANCH   1  14
ATOM     14  C   UNL     1     -46.641  -5.830 -31.679  0.00  0.00    +0.000 C 
ATOM     15  N   UNL     1     -47.277  -4.569 -31.900  0.00  0.00    +0.000 NA
ATOM     16  O   UNL     1     -45.830  -6.293 -32.525  0.00  0.00    +0.000 OA
BRANCH  15  17
ATOM     17  C   UNL     1     -47.011  -3.763 -33.079  0.00  0.00    +0.000 C 
BRANCH  17  19
ATOM     18  C   UNL     1     -44.477  -1.311 -32.841  0.00  0.00    +0.000 A 
ATOM     19  C   UNL     1     -46.037  -2.692 -32.738  0.00  0.00    +0.000 A 
ATOM     20  N   UNL     1     -45.156  -2.178 -33.618  0.00  0.00    +0.000 NA
ATOM     21  N   UNL     1     -45.896  -2.181 -31.501  0.00  0.00    +0.000 NA
ATOM     22  N   UNL     1     -44.913  -1.301 -31.568  0.00  0.00    +0.000 NA
BRANCH  18  24
ATOM     23  C   UNL     1     -42.089  -0.757 -32.580  0.00  0.00    +0.000 C 
ATOM     24  C   UNL     1     -43.368  -0.447 -33.335  0.00  0.00    +0.000 C 
ENDBRANCH  18  24
ENDBRANCH  17  19
ENDBRANCH  15  17
ENDBRANCH   1  14
BRANCH   5  25
ATOM     25  C   UNL     1     -44.195  -7.421 -27.906  0.00  0.00    +0.000 C 
ATOM     26  C   UNL     1     -43.090  -6.382 -27.840  0.00  0.00    +0.000 C 
ATOM     27  C   UNL     1     -42.952  -7.566 -28.768  0.00  0.00    +0.000 C 
ENDBRANCH   5  25
TORSDOF 6
ENDMDL
MODEL 2
REMARK VINA RESULT:      -5.6      2.440      6.843
REMARK  Name = ZINC000615451238 MolPort-044-610-126
REMARK  6 active torsions:
REMARK  status: ('A' for Active; 'I' for Inactive)
REMARK    1  A    between atoms: C_2  and  C_3
REMARK    2  A    between atoms: C_4  and  C_5
REMARK    3  A    between atoms: C_5  and  N_22
REMARK    4  A    between atoms: C_6  and  C_7
REMARK    5  A    between atoms: C_10  and  N_23
REMARK    6  A    between atoms: C_13  and  C_14
REMARK                            x       y       z     vdW  Elec       q    Type
REMARK                         _______ _______ _______ _____ _____    ______ ____
ROOT
ATOM      1  C   UNL     1     -46.783  -5.042 -32.996  0.00  0.00    +0.000 C 
ATOM      2  C   UNL     1     -46.712  -3.833 -33.941  0.00  0.00    +0.000 C 
ATOM      3  C   UNL     1     -45.574  -3.057 -33.413  0.00  0.00    +0.000 C 
ATOM      4  C   UNL     1     -45.683  -4.871 -31.933  0.00  0.00    +0.000 C 
ATOM      5  N   UNL     1     -44.963  -3.658 -32.288  0.00  0.00    +0.000 N 
ATOM      6  O   UNL     1     -45.186  -1.965 -33.907  0.00  0.00    +0.000 OA
ENDROOT
BRANCH   4   7
ATOM      7  C   UNL     1     -46.279  -4.770 -30.560  0.00  0.00    +0.000 A 
ATOM      8  C   UNL     1     -45.831  -5.325 -29.377  0.00  0.00    +0.000 A 
ATOM      9  C   UNL     1     -44.623  -6.180 -29.183  0.00  0.00    +0.000 C 
ATOM     10  C   UNL     1     -46.595  -5.326 -26.998  0.00  0.00    +0.000 C 
ATOM     11  C   UNL     1     -47.428  -4.069 -30.233  0.00  0.00    +0.000 A 
ATOM     12  N   UNL     1     -46.683  -4.965 -28.404  0.00  0.00    +0.000 N 
ATOM     13  N   UNL     1     -47.645  -4.209 -28.907  0.00  0.00    +0.000 NA
ENDBRANCH   4   7
BRANCH   1  14
ATOM     14  C   UNL     1     -46.575  -6.309 -33.756  0.00  0.00    +0.000 C 
ATOM     15  N   UNL     1     -46.515  -7.559 -33.066  0.00  0.00    +0.000 NA
ATOM     16  O   UNL     1     -46.458  -6.266 -35.010  0.00  0.00    +0.000 OA
BRANCH  15  17
ATOM     17  C   UNL     1     -46.338  -8.821 -33.764  0.00  0.00    +0.000 C 
BRANCH  17  19
ATOM     18  C   UNL     1     -46.087 -11.009 -31.000  0.00  0.00    +0.000 A 
ATOM     19  C   UNL     1     -46.129  -9.910 -32.772  0.00  0.00    +0.000 A 
ATOM     20  N   UNL     1     -46.554  -9.845 -31.495  0.00  0.00    +0.000 NA
ATOM     21  N   UNL     1     -45.438 -11.033 -33.036  0.00  0.00    +0.000 NA
ATOM     22  N   UNL     1     -45.418 -11.733 -31.915  0.00  0.00    +0.000 NA
BRANCH  18  24
ATOM     23  C   UNL     1     -46.274 -12.970 -29.518  0.00  0.00    +0.000 C 
ATOM     24  C   UNL     1     -46.295 -11.455 -29.594  0.00  0.00    +0.000 C 
ENDBRANCH  18  24
ENDBRANCH  17  19
ENDBRANCH  15  17
ENDBRANCH   1  14
BRANCH   5  25
ATOM     25  C   UNL     1     -43.851  -3.086 -31.532  0.00  0.00    +0.000 C 
ATOM     26  C   UNL     1     -42.661  -2.866 -32.450  0.00  0.00    +0.000 C 
ATOM     27  C   UNL     1     -42.680  -4.053 -31.516  0.00  0.00    +0.000 C 
ENDBRANCH   5  25
TORSDOF 6
ENDMDL
MODEL 3
REMARK VINA RESULT:      -5.5     12.058     17.093
REMARK  Name = ZINC000615451238 MolPort-044-610-126
REMARK  6 active torsions:
REMARK  status: ('A' for Active; 'I' for Inactive)
REMARK    1  A    between atoms: C_2  and  C_3
REMARK    2  A    between atoms: C_4  and  C_5
REMARK    3  A    between atoms: C_5  and  N_22
REMARK    4  A    between atoms: C_6  and  C_7
REMARK    5  A    between atoms: C_10  and  N_23
REMARK    6  A    between atoms: C_13  and  C_14
REMARK                            x       y       z     vdW  Elec       q    Type
REMARK                         _______ _______ _______ _____ _____    ______ ____
ROOT
ATOM      1  C   UNL     1     -40.036   7.210 -39.680  0.00  0.00    +0.000 C 
ATOM      2  C   UNL     1     -39.283   8.493 -40.062  0.00  0.00    +0.000 C 
ATOM      3  C   UNL     1     -40.338   9.342 -40.648  0.00  0.00    +0.000 C 
ATOM      4  C   UNL     1     -41.504   7.381 -40.112  0.00  0.00    +0.000 C 
ATOM      5  N   UNL     1     -41.611   8.728 -40.651  0.00  0.00    +0.000 N 
ATOM      6  O   UNL     1     -40.128  10.497 -41.107  0.00  0.00    +0.000 OA
ENDROOT
BRANCH   4   7
ATOM      7  C   UNL     1     -41.883   6.352 -41.134  0.00  0.00    +0.000 A 
ATOM      8  C   UNL     1     -43.103   5.733 -41.331  0.00  0.00    +0.000 A 
ATOM      9  C   UNL     1     -44.357   5.945 -40.551  0.00  0.00    +0.000 C 
ATOM     10  C   UNL     1     -44.009   4.027 -42.915  0.00  0.00    +0.000 C 
ATOM     11  C   UNL     1     -41.038   5.828 -42.098  0.00  0.00    +0.000 A 
ATOM     12  N   UNL     1     -42.973   4.884 -42.363  0.00  0.00    +0.000 N 
ATOM     13  N   UNL     1     -41.737   4.934 -42.833  0.00  0.00    +0.000 NA
ENDBRANCH   4   7
BRANCH   1  14
ATOM     14  C   UNL     1     -39.953   6.976 -38.209  0.00  0.00    +0.000 C 
ATOM     15  N   UNL     1     -38.701   6.645 -37.603  0.00  0.00    +0.000 NA
ATOM     16  O   UNL     1     -40.995   7.076 -37.508  0.00  0.00    +0.000 OA
BRANCH  15  17
ATOM     17  C   UNL     1     -38.566   6.431 -36.173  0.00  0.00    +0.000 C 
BRANCH  17  19
ATOM     18  C   UNL     1     -38.765   2.992 -35.382  0.00  0.00    +0.000 A 
ATOM     19  C   UNL     1     -38.396   4.978 -35.904  0.00  0.00    +0.000 A 
ATOM     20  N   UNL     1     -39.414   4.157 -35.580  0.00  0.00    +0.000 NA
ATOM     21  N   UNL     1     -37.203   4.357 -35.894  0.00  0.00    +0.000 NA
ATOM     22  N   UNL     1     -37.437   3.098 -35.571  0.00  0.00    +0.000 NA
BRANCH  18  24
ATOM     23  C   UNL     1     -38.978   1.268 -33.634  0.00  0.00    +0.000 C 
ATOM     24  C   UNL     1     -39.441   1.719 -35.006  0.00  0.00    +0.000 C 
ENDBRANCH  18  24
ENDBRANCH  17  19
ENDBRANCH  15  17
ENDBRANCH   1  14
BRANCH   5  25
ATOM     25  C   UNL     1     -42.824   9.316 -41.215  0.00  0.00    +0.000 C 
ATOM     26  C   UNL     1     -43.076  10.678 -40.593  0.00  0.00    +0.000 C 
ATOM     27  C   UNL     1     -43.876   9.482 -40.131  0.00  0.00    +0.000 C 
ENDBRANCH   5  25
TORSDOF 6
ENDMDL
