MODEL 1
REMARK VINA RESULT:      -6.9      0.000      0.000
REMARK  Name = ZINC000031809031
REMARK  1 active torsions:
REMARK  status: ('A' for Active; 'I' for Inactive)
REMARK    1  A    between atoms: C_7  and  C_24
REMARK                            x       y       z     vdW  Elec       q    Type
REMARK                         _______ _______ _______ _____ _____    ______ ____
ROOT
ATOM      1  C   UNL     1     -47.428  -4.495 -26.225  0.00  0.00    +0.000 C 
ATOM      2  C   UNL     1     -46.965  -4.743 -27.620  0.00  0.00    +0.000 A 
ATOM      3  N   UNL     1     -46.818  -3.769 -28.535  0.00  0.00    +0.000 NA
ATOM      4  N   UNL     1     -46.393  -4.334 -29.654  0.00  0.00    +0.000 N 
ATOM      5  C   UNL     1     -46.231  -5.663 -29.463  0.00  0.00    +0.000 A 
ATOM      6  C   UNL     1     -46.612  -5.969 -28.158  0.00  0.00    +0.000 A 
ATOM      7  C   UNL     1     -46.611  -7.262 -27.391  0.00  0.00    +0.000 C 
ATOM      8  S   UNL     1     -46.890  -8.759 -28.388  0.00  0.00    +0.000 S 
ATOM      9  C   UNL     1     -45.257  -8.670 -29.158  0.00  0.00    +0.000 C 
ATOM     10  C   UNL     1     -45.338  -7.912 -30.430  0.00  0.00    +0.000 C 
ATOM     11  O   UNL     1     -45.030  -8.500 -31.498  0.00  0.00    +0.000 OA
ATOM     12  N   UNL     1     -45.713  -6.532 -30.485  0.00  0.00    +0.000 N 
ATOM     13  H   UNL     1     -45.599  -6.110 -31.366  0.00  0.00    +0.000 HD
ATOM     14  C   UNL     1     -46.100  -3.577 -30.837  0.00  0.00    +0.000 A 
ATOM     15  N   UNL     1     -45.558  -2.325 -30.733  0.00  0.00    +0.000 NA
ATOM     16  C   UNL     1     -45.294  -1.564 -31.842  0.00  0.00    +0.000 A 
ATOM     17  N   UNL     1     -45.582  -2.037 -33.092  0.00  0.00    +0.000 NA
ATOM     18  C   UNL     1     -46.131  -3.270 -33.197  0.00  0.00    +0.000 A 
ATOM     19  N   UNL     1     -46.532  -3.872 -34.323  0.00  0.00    +0.000 N 
ATOM     20  C   UNL     1     -47.058  -5.038 -33.860  0.00  0.00    +0.000 A 
ATOM     21  N   UNL     1     -47.001  -5.171 -32.505  0.00  0.00    +0.000 NA
ATOM     22  C   UNL     1     -46.398  -4.038 -32.119  0.00  0.00    +0.000 A 
ATOM     23  H   UNL     1     -46.462  -3.552 -35.251  0.00  0.00    +0.000 HD
ENDROOT
BRANCH   7  24
ATOM     24  C   UNL     1     -45.498  -7.388 -26.383  0.00  0.00    +0.000 A 
ATOM     25  C   UNL     1     -44.184  -7.028 -26.726  0.00  0.00    +0.000 A 
ATOM     26  C   UNL     1     -43.152  -7.140 -25.792  0.00  0.00    +0.000 A 
ATOM     27  C   UNL     1     -43.423  -7.611 -24.506  0.00  0.00    +0.000 A 
ATOM     28  F   UNL     1     -42.423  -7.721 -23.600  0.00  0.00    +0.000 F 
ATOM     29  C   UNL     1     -44.727  -7.969 -24.154  0.00  0.00    +0.000 A 
ATOM     30  C   UNL     1     -45.765  -7.860 -25.084  0.00  0.00    +0.000 A 
ATOM     31 CL   UNL     1     -47.388  -8.315 -24.584  0.00  0.00    +0.000 Cl
ENDBRANCH   7  24
TORSDOF 1
ENDMDL
MODEL 2
REMARK VINA RESULT:      -6.9      5.341      7.315
REMARK  Name = ZINC000031809031
REMARK  1 active torsions:
REMARK  status: ('A' for Active; 'I' for Inactive)
REMARK    1  A    between atoms: C_7  and  C_24
REMARK                            x       y       z     vdW  Elec       q    Type
REMARK                         _______ _______ _______ _____ _____    ______ ____
ROOT
ATOM      1  C   UNL     1     -47.202  -3.387 -33.708  0.00  0.00    +0.000 C 
ATOM      2  C   UNL     1     -46.528  -4.712 -33.800  0.00  0.00    +0.000 A 
ATOM      3  N   UNL     1     -46.839  -5.639 -34.723  0.00  0.00    +0.000 NA
ATOM      4  N   UNL     1     -46.053  -6.684 -34.522  0.00  0.00    +0.000 N 
ATOM      5  C   UNL     1     -45.210  -6.431 -33.494  0.00  0.00    +0.000 A 
ATOM      6  C   UNL     1     -45.503  -5.166 -32.987  0.00  0.00    +0.000 A 
ATOM      7  C   UNL     1     -44.877  -4.360 -31.882  0.00  0.00    +0.000 C 
ATOM      8  S   UNL     1     -44.176  -5.330 -30.511  0.00  0.00    +0.000 S 
ATOM      9  C   UNL     1     -42.787  -5.918 -31.507  0.00  0.00    +0.000 C 
ATOM     10  C   UNL     1     -43.129  -7.216 -32.137  0.00  0.00    +0.000 C 
ATOM     11  O   UNL     1     -42.433  -8.223 -31.850  0.00  0.00    +0.000 OA
ATOM     12  N   UNL     1     -44.191  -7.359 -33.085  0.00  0.00    +0.000 N 
ATOM     13  H   UNL     1     -44.230  -8.237 -33.529  0.00  0.00    +0.000 HD
ATOM     14  C   UNL     1     -46.095  -7.853 -35.353  0.00  0.00    +0.000 A 
ATOM     15  N   UNL     1     -46.344  -7.732 -36.692  0.00  0.00    +0.000 NA
ATOM     16  C   UNL     1     -46.420  -8.831 -37.509  0.00  0.00    +0.000 A 
ATOM     17  N   UNL     1     -46.261 -10.088 -36.996  0.00  0.00    +0.000 NA
ATOM     18  C   UNL     1     -46.027 -10.211 -35.668  0.00  0.00    +0.000 A 
ATOM     19  N   UNL     1     -45.904 -11.353 -34.982  0.00  0.00    +0.000 N 
ATOM     20  C   UNL     1     -45.751 -10.911 -33.704  0.00  0.00    +0.000 A 
ATOM     21  N   UNL     1     -45.781  -9.555 -33.581  0.00  0.00    +0.000 NA
ATOM     22  C   UNL     1     -45.947  -9.144 -34.845  0.00  0.00    +0.000 A 
ATOM     23  H   UNL     1     -45.919 -12.278 -35.317  0.00  0.00    +0.000 HD
ENDROOT
BRANCH   7  24
ATOM     24  C   UNL     1     -43.998  -3.232 -32.356  0.00  0.00    +0.000 A 
ATOM     25  C   UNL     1     -42.949  -3.478 -33.258  0.00  0.00    +0.000 A 
ATOM     26  C   UNL     1     -42.136  -2.434 -33.701  0.00  0.00    +0.000 A 
ATOM     27  C   UNL     1     -42.363  -1.132 -33.248  0.00  0.00    +0.000 A 
ATOM     28  F   UNL     1     -41.574  -0.119 -33.677  0.00  0.00    +0.000 F 
ATOM     29  C   UNL     1     -43.405  -0.876 -32.353  0.00  0.00    +0.000 A 
ATOM     30  C   UNL     1     -44.223  -1.917 -31.905  0.00  0.00    +0.000 A 
ATOM     31 CL   UNL     1     -45.525  -1.538 -30.787  0.00  0.00    +0.000 Cl
ENDBRANCH   7  24
TORSDOF 1
ENDMDL
MODEL 3
REMARK VINA RESULT:      -6.7      3.211      4.193
REMARK  Name = ZINC000031809031
REMARK  1 active torsions:
REMARK  status: ('A' for Active; 'I' for Inactive)
REMARK    1  A    between atoms: C_7  and  C_24
REMARK                            x       y       z     vdW  Elec       q    Type
REMARK                         _______ _______ _______ _____ _____    ______ ____
ROOT
ATOM      1  C   UNL     1     -42.641  -6.768 -27.463  0.00  0.00    +0.000 C 
ATOM      2  C   UNL     1     -43.089  -6.099 -28.717  0.00  0.00    +0.000 A 
ATOM      3  N   UNL     1     -42.249  -5.731 -29.700  0.00  0.00    +0.000 NA
ATOM      4  N   UNL     1     -42.973  -5.173 -30.657  0.00  0.00    +0.000 N 
ATOM      5  C   UNL     1     -44.283  -5.205 -30.317  0.00  0.00    +0.000 A 
ATOM      6  C   UNL     1     -44.395  -5.782 -29.053  0.00  0.00    +0.000 A 
ATOM      7  C   UNL     1     -45.591  -6.101 -28.200  0.00  0.00    +0.000 C 
ATOM      8  S   UNL     1     -47.009  -4.978 -28.397  0.00  0.00    +0.000 S 
ATOM      9  C   UNL     1     -47.418  -5.621 -30.036  0.00  0.00    +0.000 C 
ATOM     10  C   UNL     1     -46.743  -4.812 -31.079  0.00  0.00    +0.000 C 
ATOM     11  O   UNL     1     -47.455  -4.203 -31.917  0.00  0.00    +0.000 OA
ATOM     12  N   UNL     1     -45.319  -4.730 -31.193  0.00  0.00    +0.000 N 
ATOM     13  H   UNL     1     -44.997  -4.274 -32.004  0.00  0.00    +0.000 HD
ATOM     14  C   UNL     1     -42.397  -4.690 -31.879  0.00  0.00    +0.000 A 
ATOM     15  N   UNL     1     -41.339  -5.347 -32.444  0.00  0.00    +0.000 NA
ATOM     16  C   UNL     1     -40.747  -4.895 -33.595  0.00  0.00    +0.000 A 
ATOM     17  N   UNL     1     -41.194  -3.756 -34.204  0.00  0.00    +0.000 NA
ATOM     18  C   UNL     1     -42.233  -3.097 -33.639  0.00  0.00    +0.000 A 
ATOM     19  N   UNL     1     -42.767  -1.943 -34.056  0.00  0.00    +0.000 N 
ATOM     20  C   UNL     1     -43.715  -1.700 -33.110  0.00  0.00    +0.000 A 
ATOM     21  N   UNL     1     -43.777  -2.649 -32.135  0.00  0.00    +0.000 NA
ATOM     22  C   UNL     1     -42.833  -3.524 -32.508  0.00  0.00    +0.000 A 
ATOM     23  H   UNL     1     -42.534  -1.406 -34.847  0.00  0.00    +0.000 HD
ENDROOT
BRANCH   7  24
ATOM     24  C   UNL     1     -45.958  -7.562 -28.164  0.00  0.00    +0.000 A 
ATOM     25  C   UNL     1     -45.797  -8.364 -29.306  0.00  0.00    +0.000 A 
ATOM     26  C   UNL     1     -46.133  -9.719 -29.274  0.00  0.00    +0.000 A 
ATOM     27  C   UNL     1     -46.632 -10.286 -28.098  0.00  0.00    +0.000 A 
ATOM     28  F   UNL     1     -46.959 -11.600 -28.066  0.00  0.00    +0.000 F 
ATOM     29  C   UNL     1     -46.793  -9.497 -26.957  0.00  0.00    +0.000 A 
ATOM     30  C   UNL     1     -46.459  -8.140 -26.982  0.00  0.00    +0.000 A 
ATOM     31 CL   UNL     1     -46.672  -7.198 -25.514  0.00  0.00    +0.000 Cl
ENDBRANCH   7  24
TORSDOF 1
ENDMDL
