MODEL 1
REMARK VINA RESULT:      -6.1      0.000      0.000
REMARK  Name = ZINC000225679518 PubChem-100720123
REMARK  7 active torsions:
REMARK  status: ('A' for Active; 'I' for Inactive)
REMARK    1  A    between atoms: C_5  and  S_21
REMARK    2  A    between atoms: C_8  and  N_20
REMARK    3  A    between atoms: C_10  and  O_28
REMARK    4  A    between atoms: C_11  and  O_27
REMARK    5  A    between atoms: C_13  and  C_14
REMARK    6  A    between atoms: C_14  and  O_26
REMARK    7  A    between atoms: N_20  and  S_21
REMARK                            x       y       z     vdW  Elec       q    Type
REMARK                         _______ _______ _______ _____ _____    ______ ____
ROOT
ATOM      1  N   UNL     1     -44.649 -17.481 -26.008  0.00  0.00    +0.000 NA
ENDROOT
BRANCH   1   2
ATOM      2  C   UNL     1     -45.019 -16.166 -25.572  0.00  0.00    +0.000 A 
ATOM      3  C   UNL     1     -45.681 -15.999 -24.351  0.00  0.00    +0.000 A 
ATOM      4  C   UNL     1     -46.048 -14.732 -23.878  0.00  0.00    +0.000 A 
ATOM      5  C   UNL     1     -45.749 -13.595 -24.662  0.00  0.00    +0.000 A 
ATOM      6  C   UNL     1     -45.090 -13.765 -25.882  0.00  0.00    +0.000 A 
ATOM      7  C   UNL     1     -44.715 -15.030 -26.355  0.00  0.00    +0.000 A 
BRANCH   7   8
ATOM      8  C   UNL     1     -44.015 -15.114 -27.661  0.00  0.00    +0.000 C 
ATOM      9  O   UNL     1     -44.631 -14.804 -28.718  0.00  0.00    +0.000 OA
BRANCH   8  11
ATOM     10  C   UNL     1     -42.281 -16.619 -28.554  0.00  0.00    +0.000 C 
ATOM     11  O   UNL     1     -42.685 -15.532 -27.735  0.00  0.00    +0.000 OA
ENDBRANCH   8  11
ENDBRANCH   7   8
BRANCH   5  13
ATOM     12  C   UNL     1     -45.135 -11.227 -24.133  0.00  0.00    +0.000 C 
ATOM     13  O   UNL     1     -46.073 -12.282 -24.289  0.00  0.00    +0.000 OA
ENDBRANCH   5  13
BRANCH   4  15
ATOM     14  C   UNL     1     -46.009 -14.412 -21.421  0.00  0.00    +0.000 C 
ATOM     15  O   UNL     1     -46.701 -14.604 -22.647  0.00  0.00    +0.000 OA
ENDBRANCH   4  15
ENDBRANCH   1   2
BRANCH   1  16
ATOM     16  S   UNL     1     -45.212 -18.943 -25.264  0.00  0.00    +0.000 S 
ATOM     17  O   UNL     1     -46.698 -18.847 -25.056  0.00  0.00    +0.000 OA
ATOM     18  O   UNL     1     -44.916 -20.106 -26.168  0.00  0.00    +0.000 OA
BRANCH  16  23
ATOM     19  C   UNL     1     -41.332 -20.407 -19.727  0.00  0.00    +0.000 C 
ATOM     20  C   UNL     1     -43.114 -19.630 -21.290  0.00  0.00    +0.000 A 
ATOM     21  C   UNL     1     -44.354 -19.007 -21.341  0.00  0.00    +0.000 A 
ATOM     22  C   UNL     1     -45.017 -18.773 -22.541  0.00  0.00    +0.000 A 
ATOM     23  C   UNL     1     -44.396 -19.186 -23.731  0.00  0.00    +0.000 A 
ATOM     24  C   UNL     1     -43.138 -19.818 -23.692  0.00  0.00    +0.000 A 
ATOM     25  C   UNL     1     -42.487 -20.044 -22.469  0.00  0.00    +0.000 A 
ATOM     26  C   UNL     1     -43.457 -19.283 -19.100  0.00  0.00    +0.000 A 
ATOM     27  N   UNL     1     -42.612 -19.783 -20.035  0.00  0.00    +0.000 N 
ATOM     28  S   UNL     1     -44.859 -18.628 -19.781  0.00  0.00    +0.000 S 
ATOM     29  O   UNL     1     -43.218 -19.304 -17.864  0.00  0.00    +0.000 OA
ENDBRANCH  16  23
ENDBRANCH   1  16
TORSDOF 7
ENDMDL
MODEL 2
REMARK VINA RESULT:      -6.0      2.991      6.048
REMARK  Name = ZINC000225679518 PubChem-100720123
REMARK  7 active torsions:
REMARK  status: ('A' for Active; 'I' for Inactive)
REMARK    1  A    between atoms: C_5  and  S_21
REMARK    2  A    between atoms: C_8  and  N_20
REMARK    3  A    between atoms: C_10  and  O_28
REMARK    4  A    between atoms: C_11  and  O_27
REMARK    5  A    between atoms: C_13  and  C_14
REMARK    6  A    between atoms: C_14  and  O_26
REMARK    7  A    between atoms: N_20  and  S_21
REMARK                            x       y       z     vdW  Elec       q    Type
REMARK                         _______ _______ _______ _____ _____    ______ ____
ROOT
ATOM      1  N   UNL     1     -44.531 -15.824 -24.731  0.00  0.00    +0.000 NA
ENDROOT
BRANCH   1   2
ATOM      2  C   UNL     1     -44.207 -16.850 -23.783  0.00  0.00    +0.000 A 
ATOM      3  C   UNL     1     -43.453 -16.535 -22.647  0.00  0.00    +0.000 A 
ATOM      4  C   UNL     1     -43.126 -17.502 -21.687  0.00  0.00    +0.000 A 
ATOM      5  C   UNL     1     -43.562 -18.832 -21.878  0.00  0.00    +0.000 A 
ATOM      6  C   UNL     1     -44.313 -19.145 -23.014  0.00  0.00    +0.000 A 
ATOM      7  C   UNL     1     -44.647 -18.179 -23.973  0.00  0.00    +0.000 A 
BRANCH   7   8
ATOM      8  C   UNL     1     -45.451 -18.602 -25.147  0.00  0.00    +0.000 C 
ATOM      9  O   UNL     1     -46.668 -18.901 -24.992  0.00  0.00    +0.000 OA
BRANCH   8  11
ATOM     10  C   UNL     1     -43.676 -19.383 -26.666  0.00  0.00    +0.000 C 
ATOM     11  O   UNL     1     -44.879 -18.672 -26.419  0.00  0.00    +0.000 OA
ENDBRANCH   8  11
ENDBRANCH   7   8
BRANCH   5  13
ATOM     12  C   UNL     1     -41.998 -20.414 -20.730  0.00  0.00    +0.000 C 
ATOM     13  O   UNL     1     -43.290 -19.879 -20.985  0.00  0.00    +0.000 OA
ENDBRANCH   5  13
BRANCH   4  15
ATOM     14  C   UNL     1     -42.924 -16.418 -19.467  0.00  0.00    +0.000 C 
ATOM     15  O   UNL     1     -42.378 -17.146 -20.559  0.00  0.00    +0.000 OA
ENDBRANCH   4  15
ENDBRANCH   1   2
BRANCH   1  16
ATOM     16  S   UNL     1     -45.904 -14.774 -24.591  0.00  0.00    +0.000 S 
ATOM     17  O   UNL     1     -45.823 -13.715 -25.654  0.00  0.00    +0.000 OA
ATOM     18  O   UNL     1     -47.162 -15.572 -24.786  0.00  0.00    +0.000 OA
BRANCH  16  23
ATOM     19  C   UNL     1     -45.516 -11.138 -18.718  0.00  0.00    +0.000 C 
ATOM     20  C   UNL     1     -45.922 -12.878 -20.458  0.00  0.00    +0.000 A 
ATOM     21  C   UNL     1     -46.418 -14.160 -20.655  0.00  0.00    +0.000 A 
ATOM     22  C   UNL     1     -46.437 -14.765 -21.908  0.00  0.00    +0.000 A 
ATOM     23  C   UNL     1     -45.934 -14.038 -22.999  0.00  0.00    +0.000 A 
ATOM     24  C   UNL     1     -45.428 -12.737 -22.813  0.00  0.00    +0.000 A 
ATOM     25  C   UNL     1     -45.419 -12.146 -21.539  0.00  0.00    +0.000 A 
ATOM     26  C   UNL     1     -46.513 -13.384 -18.354  0.00  0.00    +0.000 A 
ATOM     27  N   UNL     1     -45.976 -12.444 -19.170  0.00  0.00    +0.000 N 
ATOM     28  S   UNL     1     -46.946 -14.791 -19.187  0.00  0.00    +0.000 S 
ATOM     29  O   UNL     1     -46.672 -13.222 -17.116  0.00  0.00    +0.000 OA
ENDBRANCH  16  23
ENDBRANCH   1  16
TORSDOF 7
ENDMDL
MODEL 3
REMARK VINA RESULT:      -6.0      3.716      8.156
REMARK  Name = ZINC000225679518 PubChem-100720123
REMARK  7 active torsions:
REMARK  status: ('A' for Active; 'I' for Inactive)
REMARK    1  A    between atoms: C_5  and  S_21
REMARK    2  A    between atoms: C_8  and  N_20
REMARK    3  A    between atoms: C_10  and  O_28
REMARK    4  A    between atoms: C_11  and  O_27
REMARK    5  A    between atoms: C_13  and  C_14
REMARK    6  A    between atoms: C_14  and  O_26
REMARK    7  A    between atoms: N_20  and  S_21
REMARK                            x       y       z     vdW  Elec       q    Type
REMARK                         _______ _______ _______ _____ _____    ______ ____
ROOT
ATOM      1  N   UNL     1     -46.030 -15.602 -25.412  0.00  0.00    +0.000 NA
ENDROOT
BRANCH   1   2
ATOM      2  C   UNL     1     -45.819 -16.072 -24.074  0.00  0.00    +0.000 A 
ATOM      3  C   UNL     1     -45.929 -15.184 -22.998  0.00  0.00    +0.000 A 
ATOM      4  C   UNL     1     -45.745 -15.603 -21.674  0.00  0.00    +0.000 A 
ATOM      5  C   UNL     1     -45.431 -16.957 -21.420  0.00  0.00    +0.000 A 
ATOM      6  C   UNL     1     -45.319 -17.842 -22.496  0.00  0.00    +0.000 A 
ATOM      7  C   UNL     1     -45.508 -17.428 -23.822  0.00  0.00    +0.000 A 
BRANCH   7   8
ATOM      8  C   UNL     1     -45.373 -18.438 -24.901  0.00  0.00    +0.000 C 
ATOM      9  O   UNL     1     -46.345 -19.198 -25.166  0.00  0.00    +0.000 OA
BRANCH   8  11
ATOM     10  C   UNL     1     -44.021 -19.527 -26.648  0.00  0.00    +0.000 C 
ATOM     11  O   UNL     1     -44.185 -18.558 -25.625  0.00  0.00    +0.000 OA
ENDBRANCH   8  11
ENDBRANCH   7   8
BRANCH   5  13
ATOM     12  C   UNL     1     -46.079 -18.415 -19.492  0.00  0.00    +0.000 C 
ATOM     13  O   UNL     1     -45.223 -17.483 -20.137  0.00  0.00    +0.000 OA
ENDBRANCH   5  13
BRANCH   4  15
ATOM     14  C   UNL     1     -47.107 -14.430 -19.968  0.00  0.00    +0.000 C 
ATOM     15  O   UNL     1     -45.873 -14.686 -20.624  0.00  0.00    +0.000 OA
ENDBRANCH   4  15
ENDBRANCH   1   2
BRANCH   1  16
ATOM     16  S   UNL     1     -44.796 -14.876 -26.390  0.00  0.00    +0.000 S 
ATOM     17  O   UNL     1     -43.627 -14.514 -25.518  0.00  0.00    +0.000 OA
ATOM     18  O   UNL     1     -44.346 -15.860 -27.433  0.00  0.00    +0.000 OA
BRANCH  16  23
ATOM     19  C   UNL     1     -47.398  -9.808 -30.315  0.00  0.00    +0.000 C 
ATOM     20  C   UNL     1     -46.384 -11.167 -28.486  0.00  0.00    +0.000 A 
ATOM     21  C   UNL     1     -45.852 -11.088 -27.206  0.00  0.00    +0.000 A 
ATOM     22  C   UNL     1     -45.368 -12.205 -26.533  0.00  0.00    +0.000 A 
ATOM     23  C   UNL     1     -45.428 -13.447 -27.186  0.00  0.00    +0.000 A 
ATOM     24  C   UNL     1     -45.966 -13.540 -28.485  0.00  0.00    +0.000 A 
ATOM     25  C   UNL     1     -46.449 -12.399 -29.145  0.00  0.00    +0.000 A 
ATOM     26  C   UNL     1     -46.606  -8.965 -28.117  0.00  0.00    +0.000 A 
ATOM     27  N   UNL     1     -46.807  -9.979 -28.995  0.00  0.00    +0.000 N 
ATOM     28  S   UNL     1     -45.900  -9.492 -26.674  0.00  0.00    +0.000 S 
ATOM     29  O   UNL     1     -46.915  -7.768 -28.354  0.00  0.00    +0.000 OA
ENDBRANCH  16  23
ENDBRANCH   1  16
TORSDOF 7
ENDMDL
