MODEL 1
REMARK VINA RESULT:      -7.9      0.000      0.000
REMARK  Name = ZINC000019126373 ZINC19126373 PubChem-92555022
REMARK  3 active torsions:
REMARK  status: ('A' for Active; 'I' for Inactive)
REMARK    1  A    between atoms: C_1  and  C_14
REMARK    2  A    between atoms: C_7  and  C_19
REMARK    3  A    between atoms: C_23  and  C_25
REMARK                            x       y       z     vdW  Elec       q    Type
REMARK                         _______ _______ _______ _____ _____    ______ ____
ROOT
ATOM      1  C   UNL     1     -46.458  -8.482 -30.328  0.00  0.00    +0.000 C 
ATOM      2  O   UNL     1     -47.404  -9.256 -30.638  0.00  0.00    +0.000 OA
ATOM      3  N   UNL     1     -45.098  -8.922 -30.536  0.00  0.00    +0.000 N 
ATOM      4  C   UNL     1     -44.848 -10.222 -31.149  0.00  0.00    +0.000 C 
ATOM      5  C   UNL     1     -44.402 -10.011 -32.593  0.00  0.00    +0.000 C 
ATOM      6  C   UNL     1     -43.173  -9.100 -32.639  0.00  0.00    +0.000 C 
ATOM      7  C   UNL     1     -43.394  -7.776 -31.890  0.00  0.00    +0.000 C 
ATOM      8  C   UNL     1     -43.960  -8.005 -30.484  0.00  0.00    +0.000 C 
ENDROOT
BRANCH   1  14
ATOM      9  C   UNL     1     -47.403  -2.606 -25.951  0.00  0.00    +0.000 C 
ATOM     10  C   UNL     1     -47.302  -3.658 -26.996  0.00  0.00    +0.000 A 
ATOM     11  C   UNL     1     -46.800  -4.942 -26.779  0.00  0.00    +0.000 A 
ATOM     12  C   UNL     1     -46.915  -5.521 -28.024  0.00  0.00    +0.000 A 
ATOM     13  C   UNL     1     -46.575  -6.803 -28.447  0.00  0.00    +0.000 A 
ATOM     14  C   UNL     1     -46.793  -7.137 -29.801  0.00  0.00    +0.000 A 
ATOM     15  C   UNL     1     -47.362  -6.176 -30.672  0.00  0.00    +0.000 A 
ATOM     16  C   UNL     1     -47.697  -4.889 -30.216  0.00  0.00    +0.000 A 
ATOM     17  C   UNL     1     -47.454  -4.600 -28.878  0.00  0.00    +0.000 A 
ATOM     18  O   UNL     1     -47.683  -3.480 -28.247  0.00  0.00    +0.000 OA
ENDBRANCH   1  14
BRANCH   7  19
ATOM     19  C   UNL     1     -44.189  -6.774 -32.675  0.00  0.00    +0.000 A 
ATOM     20  C   UNL     1     -45.023  -7.164 -33.726  0.00  0.00    +0.000 A 
ATOM     21  C   UNL     1     -45.767  -6.189 -34.394  0.00  0.00    +0.000 A 
ATOM     22  N   UNL     1     -45.660  -4.889 -34.013  0.00  0.00    +0.000 NA
ATOM     23  C   UNL     1     -44.841  -4.515 -32.992  0.00  0.00    +0.000 A 
ATOM     24  N   UNL     1     -44.117  -5.461 -32.332  0.00  0.00    +0.000 NA
ATOM     25  N   UNL     1     -46.647  -6.537 -35.465  0.00  0.00    +0.000 N 
ATOM     26  C   UNL     1     -46.491  -7.749 -36.253  0.00  0.00    +0.000 C 
ATOM     27  H   UNL     1     -47.392  -5.929 -35.678  0.00  0.00    +0.000 HD
BRANCH  23  28
ATOM     28  C   UNL     1     -44.747  -3.099 -32.596  0.00  0.00    +0.000 A 
ATOM     29  C   UNL     1     -44.015  -2.187 -33.368  0.00  0.00    +0.000 A 
ATOM     30  C   UNL     1     -43.933  -0.849 -32.982  0.00  0.00    +0.000 A 
ATOM     31  C   UNL     1     -44.586  -0.433 -31.821  0.00  0.00    +0.000 A 
ATOM     32  N   UNL     1     -45.293  -1.326 -31.080  0.00  0.00    +0.000 NA
ATOM     33  C   UNL     1     -45.386  -2.635 -31.438  0.00  0.00    +0.000 A 
ENDBRANCH  23  28
ENDBRANCH   7  19
TORSDOF 3
ENDMDL
MODEL 2
REMARK VINA RESULT:      -7.3     11.636     15.495
REMARK  Name = ZINC000019126373 ZINC19126373 PubChem-92555022
REMARK  3 active torsions:
REMARK  status: ('A' for Active; 'I' for Inactive)
REMARK    1  A    between atoms: C_1  and  C_14
REMARK    2  A    between atoms: C_7  and  C_19
REMARK    3  A    between atoms: C_23  and  C_25
REMARK                            x       y       z     vdW  Elec       q    Type
REMARK                         _______ _______ _______ _____ _____    ______ ____
ROOT
ATOM      1  C   UNL     1     -44.994 -15.509 -18.354  0.00  0.00    +0.000 C 
ATOM      2  O   UNL     1     -44.056 -15.089 -17.622  0.00  0.00    +0.000 OA
ATOM      3  N   UNL     1     -46.240 -14.778 -18.381  0.00  0.00    +0.000 N 
ATOM      4  C   UNL     1     -46.368 -13.545 -17.611  0.00  0.00    +0.000 C 
ATOM      5  C   UNL     1     -46.302 -12.357 -18.564  0.00  0.00    +0.000 C 
ATOM      6  C   UNL     1     -47.382 -12.483 -19.643  0.00  0.00    +0.000 C 
ATOM      7  C   UNL     1     -47.324 -13.833 -20.377  0.00  0.00    +0.000 C 
ATOM      8  C   UNL     1     -47.264 -15.011 -19.398  0.00  0.00    +0.000 C 
ENDROOT
BRANCH   1  14
ATOM      9  C   UNL     1     -42.232 -20.368 -23.185  0.00  0.00    +0.000 C 
ATOM     10  C   UNL     1     -42.945 -19.549 -22.169  0.00  0.00    +0.000 A 
ATOM     11  C   UNL     1     -42.578 -18.255 -21.799  0.00  0.00    +0.000 A 
ATOM     12  C   UNL     1     -43.526 -17.937 -20.850  0.00  0.00    +0.000 A 
ATOM     13  C   UNL     1     -43.688 -16.772 -20.105  0.00  0.00    +0.000 A 
ATOM     14  C   UNL     1     -44.755 -16.714 -19.182  0.00  0.00    +0.000 A 
ATOM     15  C   UNL     1     -45.626 -17.824 -19.056  0.00  0.00    +0.000 A 
ATOM     16  C   UNL     1     -45.439 -18.988 -19.822  0.00  0.00    +0.000 A 
ATOM     17  C   UNL     1     -44.369 -19.005 -20.711  0.00  0.00    +0.000 A 
ATOM     18  O   UNL     1     -44.009 -19.971 -21.512  0.00  0.00    +0.000 OA
ENDBRANCH   1  14
BRANCH   7  19
ATOM     19  C   UNL     1     -46.247 -13.897 -21.420  0.00  0.00    +0.000 A 
ATOM     20  C   UNL     1     -45.364 -12.834 -21.626  0.00  0.00    +0.000 A 
ATOM     21  C   UNL     1     -44.359 -12.969 -22.587  0.00  0.00    +0.000 A 
ATOM     22  N   UNL     1     -44.265 -14.121 -23.300  0.00  0.00    +0.000 NA
ATOM     23  C   UNL     1     -45.133 -15.151 -23.097  0.00  0.00    +0.000 A 
ATOM     24  N   UNL     1     -46.111 -15.030 -22.159  0.00  0.00    +0.000 NA
ATOM     25  N   UNL     1     -43.420 -11.917 -22.825  0.00  0.00    +0.000 N 
ATOM     26  C   UNL     1     -43.695 -10.526 -22.503  0.00  0.00    +0.000 C 
ATOM     27  H   UNL     1     -42.550 -12.145 -23.224  0.00  0.00    +0.000 HD
BRANCH  23  28
ATOM     28  C   UNL     1     -45.007 -16.392 -23.882  0.00  0.00    +0.000 A 
ATOM     29  C   UNL     1     -45.883 -17.465 -23.672  0.00  0.00    +0.000 A 
ATOM     30  C   UNL     1     -45.754 -18.634 -24.420  0.00  0.00    +0.000 A 
ATOM     31  C   UNL     1     -44.742 -18.722 -25.378  0.00  0.00    +0.000 A 
ATOM     32  N   UNL     1     -43.897 -17.676 -25.574  0.00  0.00    +0.000 NA
ATOM     33  C   UNL     1     -44.007 -16.527 -24.854  0.00  0.00    +0.000 A 
ENDBRANCH  23  28
ENDBRANCH   7  19
TORSDOF 3
ENDMDL
MODEL 3
REMARK VINA RESULT:      -7.3     10.021     13.573
REMARK  Name = ZINC000019126373 ZINC19126373 PubChem-92555022
REMARK  3 active torsions:
REMARK  status: ('A' for Active; 'I' for Inactive)
REMARK    1  A    between atoms: C_1  and  C_14
REMARK    2  A    between atoms: C_7  and  C_19
REMARK    3  A    between atoms: C_23  and  C_25
REMARK                            x       y       z     vdW  Elec       q    Type
REMARK                         _______ _______ _______ _____ _____    ______ ____
ROOT
ATOM      1  C   UNL     1     -43.339 -19.567 -26.281  0.00  0.00    +0.000 C 
ATOM      2  O   UNL     1     -44.273 -19.972 -27.027  0.00  0.00    +0.000 OA
ATOM      3  N   UNL     1     -42.117 -19.091 -26.886  0.00  0.00    +0.000 N 
ATOM      4  C   UNL     1     -42.009 -19.034 -28.340  0.00  0.00    +0.000 C 
ATOM      5  C   UNL     1     -42.131 -17.582 -28.790  0.00  0.00    +0.000 C 
ATOM      6  C   UNL     1     -41.074 -16.721 -28.094  0.00  0.00    +0.000 C 
ATOM      7  C   UNL     1     -41.109 -16.870 -26.564  0.00  0.00    +0.000 C 
ATOM      8  C   UNL     1     -41.110 -18.342 -26.135  0.00  0.00    +0.000 C 
ENDROOT
BRANCH   1  14
ATOM      9  C   UNL     1     -45.977 -18.261 -19.505  0.00  0.00    +0.000 C 
ATOM     10  C   UNL     1     -45.293 -18.656 -20.764  0.00  0.00    +0.000 A 
ATOM     11  C   UNL     1     -45.658 -18.211 -22.035  0.00  0.00    +0.000 A 
ATOM     12  C   UNL     1     -44.743 -18.844 -22.847  0.00  0.00    +0.000 A 
ATOM     13  C   UNL     1     -44.594 -18.799 -24.230  0.00  0.00    +0.000 A 
ATOM     14  C   UNL     1     -43.562 -19.563 -24.816  0.00  0.00    +0.000 A 
ATOM     15  C   UNL     1     -42.709 -20.331 -23.985  0.00  0.00    +0.000 A 
ATOM     16  C   UNL     1     -42.881 -20.357 -22.591  0.00  0.00    +0.000 A 
ATOM     17  C   UNL     1     -43.918 -19.597 -22.059  0.00  0.00    +0.000 A 
ATOM     18  O   UNL     1     -44.259 -19.476 -20.804  0.00  0.00    +0.000 OA
ENDBRANCH   1  14
BRANCH   7  19
ATOM     19  C   UNL     1     -42.208 -16.081 -25.914  0.00  0.00    +0.000 A 
ATOM     20  C   UNL     1     -42.276 -15.929 -24.527  0.00  0.00    +0.000 A 
ATOM     21  C   UNL     1     -43.301 -15.151 -23.983  0.00  0.00    +0.000 A 
ATOM     22  N   UNL     1     -44.207 -14.567 -24.810  0.00  0.00    +0.000 NA
ATOM     23  C   UNL     1     -44.138 -14.725 -26.160  0.00  0.00    +0.000 A 
ATOM     24  N   UNL     1     -43.138 -15.476 -26.698  0.00  0.00    +0.000 NA
ATOM     25  N   UNL     1     -43.406 -14.951 -22.572  0.00  0.00    +0.000 N 
ATOM     26  C   UNL     1     -42.832 -15.867 -21.599  0.00  0.00    +0.000 C 
ATOM     27  H   UNL     1     -43.888 -14.157 -22.244  0.00  0.00    +0.000 HD
BRANCH  23  28
ATOM     28  C   UNL     1     -45.132 -14.078 -27.035  0.00  0.00    +0.000 A 
ATOM     29  C   UNL     1     -44.975 -14.085 -28.427  0.00  0.00    +0.000 A 
ATOM     30  C   UNL     1     -45.922 -13.468 -29.244  0.00  0.00    +0.000 A 
ATOM     31  C   UNL     1     -47.026 -12.846 -28.658  0.00  0.00    +0.000 A 
ATOM     32  N   UNL     1     -47.169 -12.845 -27.306  0.00  0.00    +0.000 NA
ATOM     33  C   UNL     1     -46.256 -13.441 -26.492  0.00  0.00    +0.000 A 
ENDBRANCH  23  28
ENDBRANCH   7  19
TORSDOF 3
ENDMDL
