MODEL 1
REMARK VINA RESULT:      -7.0      0.000      0.000
REMARK  Name = ZINC000033168752 ZINC33168752 PubChem-92884272
REMARK  7 active torsions:
REMARK  status: ('A' for Active; 'I' for Inactive)
REMARK    1  A    between atoms: C_5  and  C_21
REMARK    2  A    between atoms: C_7  and  S_13
REMARK    3  A    between atoms: S_13  and  C_18
REMARK    4  A    between atoms: N_23  and  C_25
REMARK    5  A    between atoms: C_25  and  C_26
REMARK    6  A    between atoms: C_28  and  O_34
REMARK    7  A    between atoms: C_31  and  O_32
REMARK                            x       y       z     vdW  Elec       q    Type
REMARK                         _______ _______ _______ _____ _____    ______ ____
ROOT
ATOM      1  N   UNL     1     -45.659  -6.790 -29.593  0.00  0.00    +0.000 N 
ATOM      2  C   UNL     1     -45.566  -6.590 -28.143  0.00  0.00    +0.000 C 
ATOM      3  C   UNL     1     -46.734  -5.780 -27.598  0.00  0.00    +0.000 C 
ATOM      4  C   UNL     1     -46.913  -4.538 -28.453  0.00  0.00    +0.000 C 
ATOM      5  C   UNL     1     -47.286  -4.904 -29.892  0.00  0.00    +0.000 C 
ATOM      6  C   UNL     1     -46.815  -6.296 -30.347  0.00  0.00    +0.000 C 
ATOM      7  C   UNL     1     -45.395  -9.089 -30.530  0.00  0.00    +0.000 A 
ATOM      8  C   UNL     1     -44.857  -7.835 -30.168  0.00  0.00    +0.000 A 
ATOM      9  N   UNL     1     -43.540  -7.596 -30.420  0.00  0.00    +0.000 NA
ATOM     10  C   UNL     1     -42.738  -8.529 -30.996  0.00  0.00    +0.000 A 
ATOM     11  C   UNL     1     -43.275  -9.761 -31.357  0.00  0.00    +0.000 A 
ATOM     12  N   UNL     1     -44.588 -10.008 -31.125  0.00  0.00    +0.000 NA
ENDROOT
BRANCH   5  13
ATOM     13  C   UNL     1     -46.831  -3.842 -30.837  0.00  0.00    +0.000 C 
ATOM     14  O   UNL     1     -46.276  -2.808 -30.379  0.00  0.00    +0.000 OA
ATOM     15  N   UNL     1     -47.005  -4.008 -32.244  0.00  0.00    +0.000 N 
ATOM     16  H   UNL     1     -47.385  -4.851 -32.581  0.00  0.00    +0.000 HD
BRANCH  15  17
ATOM     17  C   UNL     1     -46.638  -2.972 -33.196  0.00  0.00    +0.000 C 
BRANCH  17  18
ATOM     18  C   UNL     1     -45.158  -2.953 -33.373  0.00  0.00    +0.000 A 
ATOM     19  C   UNL     1     -44.465  -1.749 -33.215  0.00  0.00    +0.000 A 
ATOM     20  C   UNL     1     -43.076  -1.694 -33.405  0.00  0.00    +0.000 A 
ATOM     21  C   UNL     1     -42.386  -2.857 -33.754  0.00  0.00    +0.000 A 
ATOM     22  C   UNL     1     -43.073  -4.062 -33.917  0.00  0.00    +0.000 A 
ATOM     23  C   UNL     1     -44.464  -4.120 -33.731  0.00  0.00    +0.000 A 
BRANCH  20  24
ATOM     24  O   UNL     1     -42.363  -0.501 -33.255  0.00  0.00    +0.000 OA
ATOM     25  C   UNL     1     -41.338  -0.335 -32.285  0.00  0.00    +0.000 C 
ENDBRANCH  20  24
BRANCH  23  26
ATOM     26  O   UNL     1     -45.167  -5.321 -33.888  0.00  0.00    +0.000 OA
ATOM     27  C   UNL     1     -44.561  -6.595 -33.724  0.00  0.00    +0.000 C 
ENDBRANCH  23  26
ENDBRANCH  17  18
ENDBRANCH  15  17
ENDBRANCH   5  13
BRANCH   7  28
ATOM     28  S   UNL     1     -47.131  -9.490 -30.319  0.00  0.00    +0.000 S 
BRANCH  28  33
ATOM     29  C   UNL     1     -46.131 -13.704 -26.058  0.00  0.00    +0.000 C 
ATOM     30  C   UNL     1     -46.367 -12.671 -27.100  0.00  0.00    +0.000 A 
ATOM     31  C   UNL     1     -46.220 -11.317 -26.789  0.00  0.00    +0.000 A 
ATOM     32  C   UNL     1     -46.447 -10.346 -27.769  0.00  0.00    +0.000 A 
ATOM     33  C   UNL     1     -46.816 -10.728 -29.064  0.00  0.00    +0.000 A 
ATOM     34  C   UNL     1     -46.969 -12.084 -29.372  0.00  0.00    +0.000 A 
ATOM     35  C   UNL     1     -46.742 -13.054 -28.392  0.00  0.00    +0.000 A 
ENDBRANCH  28  33
ENDBRANCH   7  28
TORSDOF 7
ENDMDL
MODEL 2
REMARK VINA RESULT:      -6.7      4.208      9.266
REMARK  Name = ZINC000033168752 ZINC33168752 PubChem-92884272
REMARK  7 active torsions:
REMARK  status: ('A' for Active; 'I' for Inactive)
REMARK    1  A    between atoms: C_5  and  C_21
REMARK    2  A    between atoms: C_7  and  S_13
REMARK    3  A    between atoms: S_13  and  C_18
REMARK    4  A    between atoms: N_23  and  C_25
REMARK    5  A    between atoms: C_25  and  C_26
REMARK    6  A    between atoms: C_28  and  O_34
REMARK    7  A    between atoms: C_31  and  O_32
REMARK                            x       y       z     vdW  Elec       q    Type
REMARK                         _______ _______ _______ _____ _____    ______ ____
ROOT
ATOM      1  N   UNL     1     -44.866  -5.783 -33.076  0.00  0.00    +0.000 N 
ATOM      2  C   UNL     1     -43.404  -5.718 -33.187  0.00  0.00    +0.000 C 
ATOM      3  C   UNL     1     -42.923  -5.986 -34.606  0.00  0.00    +0.000 C 
ATOM      4  C   UNL     1     -43.595  -7.243 -35.126  0.00  0.00    +0.000 C 
ATOM      5  C   UNL     1     -45.113  -7.062 -35.220  0.00  0.00    +0.000 C 
ATOM      6  C   UNL     1     -45.699  -6.013 -34.260  0.00  0.00    +0.000 C 
ATOM      7  C   UNL     1     -46.091  -3.920 -31.955  0.00  0.00    +0.000 A 
ATOM      8  C   UNL     1     -45.467  -5.186 -31.916  0.00  0.00    +0.000 A 
ATOM      9  N   UNL     1     -45.481  -5.881 -30.745  0.00  0.00    +0.000 NA
ATOM     10  C   UNL     1     -46.066  -5.388 -29.623  0.00  0.00    +0.000 A 
ATOM     11  C   UNL     1     -46.686  -4.143 -29.668  0.00  0.00    +0.000 A 
ATOM     12  N   UNL     1     -46.692  -3.444 -30.831  0.00  0.00    +0.000 NA
ENDROOT
BRANCH   5  13
ATOM     13  C   UNL     1     -45.807  -8.375 -35.078  0.00  0.00    +0.000 C 
ATOM     14  O   UNL     1     -46.773  -8.646 -35.839  0.00  0.00    +0.000 OA
ATOM     15  N   UNL     1     -45.365  -9.322 -34.104  0.00  0.00    +0.000 N 
ATOM     16  H   UNL     1     -44.569  -9.112 -33.563  0.00  0.00    +0.000 HD
BRANCH  15  17
ATOM     17  C   UNL     1     -46.051 -10.584 -33.885  0.00  0.00    +0.000 C 
BRANCH  17  18
ATOM     18  C   UNL     1     -45.576 -11.593 -34.874  0.00  0.00    +0.000 A 
ATOM     19  C   UNL     1     -46.485 -12.140 -35.785  0.00  0.00    +0.000 A 
ATOM     20  C   UNL     1     -46.074 -13.113 -36.709  0.00  0.00    +0.000 A 
ATOM     21  C   UNL     1     -44.742 -13.534 -36.711  0.00  0.00    +0.000 A 
ATOM     22  C   UNL     1     -43.830 -12.995 -35.802  0.00  0.00    +0.000 A 
ATOM     23  C   UNL     1     -44.239 -12.022 -34.875  0.00  0.00    +0.000 A 
BRANCH  20  24
ATOM     24  O   UNL     1     -46.966 -13.676 -37.626  0.00  0.00    +0.000 OA
ATOM     25  C   UNL     1     -46.540 -14.286 -38.837  0.00  0.00    +0.000 C 
ENDBRANCH  20  24
BRANCH  23  26
ATOM     26  O   UNL     1     -43.336 -11.471 -33.958  0.00  0.00    +0.000 OA
ATOM     27  C   UNL     1     -42.022 -11.976 -33.772  0.00  0.00    +0.000 C 
ENDBRANCH  23  26
ENDBRANCH  17  18
ENDBRANCH  15  17
ENDBRANCH   5  13
BRANCH   7  28
ATOM     28  S   UNL     1     -46.204  -2.947 -33.458  0.00  0.00    +0.000 S 
BRANCH  28  33
ATOM     29  C   UNL     1     -41.004  -0.007 -32.351  0.00  0.00    +0.000 C 
ATOM     30  C   UNL     1     -42.279  -0.718 -32.626  0.00  0.00    +0.000 A 
ATOM     31  C   UNL     1     -43.457  -0.312 -31.994  0.00  0.00    +0.000 A 
ATOM     32  C   UNL     1     -44.655  -0.986 -32.250  0.00  0.00    +0.000 A 
ATOM     33  C   UNL     1     -44.678  -2.063 -33.143  0.00  0.00    +0.000 A 
ATOM     34  C   UNL     1     -43.497  -2.473 -33.770  0.00  0.00    +0.000 A 
ATOM     35  C   UNL     1     -42.299  -1.799 -33.513  0.00  0.00    +0.000 A 
ENDBRANCH  28  33
ENDBRANCH   7  28
TORSDOF 7
ENDMDL
MODEL 3
REMARK VINA RESULT:      -6.6      3.268      9.557
REMARK  Name = ZINC000033168752 ZINC33168752 PubChem-92884272
REMARK  7 active torsions:
REMARK  status: ('A' for Active; 'I' for Inactive)
REMARK    1  A    between atoms: C_5  and  C_21
REMARK    2  A    between atoms: C_7  and  S_13
REMARK    3  A    between atoms: S_13  and  C_18
REMARK    4  A    between atoms: N_23  and  C_25
REMARK    5  A    between atoms: C_25  and  C_26
REMARK    6  A    between atoms: C_28  and  O_34
REMARK    7  A    between atoms: C_31  and  O_32
REMARK                            x       y       z     vdW  Elec       q    Type
REMARK                         _______ _______ _______ _____ _____    ______ ____
ROOT
ATOM      1  N   UNL     1     -45.034  -7.457 -31.000  0.00  0.00    +0.000 N 
ATOM      2  C   UNL     1     -43.648  -7.353 -30.528  0.00  0.00    +0.000 C 
ATOM      3  C   UNL     1     -42.717  -8.304 -31.267  0.00  0.00    +0.000 C 
ATOM      4  C   UNL     1     -43.336  -9.689 -31.278  0.00  0.00    +0.000 C 
ATOM      5  C   UNL     1     -44.655  -9.701 -32.055  0.00  0.00    +0.000 C 
ATOM      6  C   UNL     1     -45.384  -8.347 -32.110  0.00  0.00    +0.000 C 
ATOM      7  C   UNL     1     -46.276  -5.380 -31.613  0.00  0.00    +0.000 A 
ATOM      8  C   UNL     1     -45.924  -6.377 -30.676  0.00  0.00    +0.000 A 
ATOM      9  N   UNL     1     -46.490  -6.333 -29.438  0.00  0.00    +0.000 NA
ATOM     10  C   UNL     1     -47.368  -5.360 -29.083  0.00  0.00    +0.000 A 
ATOM     11  C   UNL     1     -47.717  -4.384 -30.012  0.00  0.00    +0.000 A 
ATOM     12  N   UNL     1     -47.172  -4.422 -31.254  0.00  0.00    +0.000 NA
ENDROOT
BRANCH   5  13
ATOM     13  C   UNL     1     -45.552 -10.780 -31.547  0.00  0.00    +0.000 C 
ATOM     14  O   UNL     1     -45.880 -11.721 -32.317  0.00  0.00    +0.000 OA
ATOM     15  N   UNL     1     -46.015 -10.755 -30.196  0.00  0.00    +0.000 N 
ATOM     16  H   UNL     1     -45.695 -10.043 -29.597  0.00  0.00    +0.000 HD
BRANCH  15  17
ATOM     17  C   UNL     1     -46.942 -11.747 -29.678  0.00  0.00    +0.000 C 
BRANCH  17  18
ATOM     18  C   UNL     1     -46.223 -12.677 -28.760  0.00  0.00    +0.000 A 
ATOM     19  C   UNL     1     -45.296 -13.581 -29.289  0.00  0.00    +0.000 A 
ATOM     20  C   UNL     1     -44.626 -14.488 -28.454  0.00  0.00    +0.000 A 
ATOM     21  C   UNL     1     -44.893 -14.482 -27.083  0.00  0.00    +0.000 A 
ATOM     22  C   UNL     1     -45.820 -13.584 -26.550  0.00  0.00    +0.000 A 
ATOM     23  C   UNL     1     -46.495 -12.677 -27.383  0.00  0.00    +0.000 A 
BRANCH  20  24
ATOM     24  O   UNL     1     -43.699 -15.402 -28.961  0.00  0.00    +0.000 OA
ATOM     25  C   UNL     1     -42.544 -15.807 -28.237  0.00  0.00    +0.000 C 
ENDBRANCH  20  24
BRANCH  23  26
ATOM     26  O   UNL     1     -47.426 -11.769 -26.862  0.00  0.00    +0.000 OA
ATOM     27  C   UNL     1     -47.049 -10.538 -26.264  0.00  0.00    +0.000 C 
ENDBRANCH  23  26
ENDBRANCH  17  18
ENDBRANCH  15  17
ENDBRANCH   5  13
BRANCH   7  28
ATOM     28  S   UNL     1     -45.656  -5.378 -33.297  0.00  0.00    +0.000 S 
BRANCH  28  33
ATOM     29  C   UNL     1     -42.142  -0.487 -32.503  0.00  0.00    +0.000 C 
ATOM     30  C   UNL     1     -43.003  -1.683 -32.688  0.00  0.00    +0.000 A 
ATOM     31  C   UNL     1     -42.598  -2.921 -32.183  0.00  0.00    +0.000 A 
ATOM     32  C   UNL     1     -43.408  -4.047 -32.362  0.00  0.00    +0.000 A 
ATOM     33  C   UNL     1     -44.625  -3.936 -33.042  0.00  0.00    +0.000 A 
ATOM     34  C   UNL     1     -45.026  -2.697 -33.553  0.00  0.00    +0.000 A 
ATOM     35  C   UNL     1     -44.216  -1.571 -33.374  0.00  0.00    +0.000 A 
ENDBRANCH  28  33
ENDBRANCH   7  28
TORSDOF 7
ENDMDL
