MODEL 1
REMARK VINA RESULT:      -6.9      0.000      0.000
REMARK  Name = ZINC000408624461
REMARK  4 active torsions:
REMARK  status: ('A' for Active; 'I' for Inactive)
REMARK    1  A    between atoms: C_1  and  N_2
REMARK    2  A    between atoms: C_1  and  C_17
REMARK    3  A    between atoms: N_18  and  C_20
REMARK    4  A    between atoms: C_25  and  N_27
REMARK                            x       y       z     vdW  Elec       q    Type
REMARK                         _______ _______ _______ _____ _____    ______ ____
ROOT
ATOM      1  C   UNL     1     -46.778  -7.105 -31.884  0.00  0.00    +0.000 C 
ENDROOT
BRANCH   1   2
ATOM      2  N   UNL     1     -45.869  -6.093 -32.402  0.00  0.00    +0.000 N 
ATOM      3  C   UNL     1     -46.127  -5.212 -33.479  0.00  0.00    +0.000 C 
ATOM      4  O   UNL     1     -47.149  -5.295 -34.210  0.00  0.00    +0.000 OA
ATOM      5  C   UNL     1     -45.081  -4.149 -33.625  0.00  0.00    +0.000 C 
ATOM      6  C   UNL     1     -44.067  -4.467 -32.465  0.00  0.00    +0.000 C 
ATOM      7  C   UNL     1     -44.668  -5.661 -31.787  0.00  0.00    +0.000 C 
ATOM      8  O   UNL     1     -44.194  -6.195 -30.750  0.00  0.00    +0.000 OA
ATOM      9  C   UNL     1     -43.947  -3.232 -31.526  0.00  0.00    +0.000 C 
ATOM     10  C   UNL     1     -45.355  -2.889 -31.045  0.00  0.00    +0.000 C 
ATOM     11  C   UNL     1     -46.233  -2.627 -32.029  0.00  0.00    +0.000 C 
ATOM     12  C   UNL     1     -45.657  -2.715 -33.442  0.00  0.00    +0.000 C 
ATOM     13  C   UNL     1     -44.408  -1.777 -33.577  0.00  0.00    +0.000 C 
ATOM     14  C   UNL     1     -44.180  -0.773 -32.449  0.00  0.00    +0.000 C 
ATOM     15  C   UNL     1     -43.392  -2.084 -32.440  0.00  0.00    +0.000 C 
ENDBRANCH   1   2
BRANCH   1  17
ATOM     16  O   UNL     1     -46.672  -8.544 -33.766  0.00  0.00    +0.000 OA
ATOM     17  C   UNL     1     -46.506  -8.428 -32.524  0.00  0.00    +0.000 C 
ATOM     18  N   UNL     1     -46.055  -9.567 -31.776  0.00  0.00    +0.000 N 
ATOM     19  H   UNL     1     -45.979 -10.409 -32.280  0.00  0.00    +0.000 HD
BRANCH  18  20
ATOM     20  C   UNL     1     -45.702  -9.637 -30.387  0.00  0.00    +0.000 A 
ATOM     21  C   UNL     1     -44.374  -9.408 -30.017  0.00  0.00    +0.000 A 
ATOM     22  C   UNL     1     -43.996  -9.466 -28.673  0.00  0.00    +0.000 A 
ATOM     23  C   UNL     1     -44.939  -9.758 -27.682  0.00  0.00    +0.000 A 
ATOM     24 CL   UNL     1     -44.417  -9.830 -26.008  0.00  0.00    +0.000 Cl
ATOM     25  C   UNL     1     -46.277  -9.991 -28.039  0.00  0.00    +0.000 A 
ATOM     26  C   UNL     1     -46.647  -9.920 -29.392  0.00  0.00    +0.000 A 
BRANCH  25  27
ATOM     27  N   UNL     1     -47.240 -10.313 -27.027  0.00  0.00    +0.000 N 
ATOM     28  O   UNL     1     -47.387 -11.484 -26.621  0.00  0.00    +0.000 OA
ATOM     29  O   UNL     1     -47.403 -11.603 -26.579  0.00  0.00    +0.000 OA
ENDBRANCH  25  27
ENDBRANCH  18  20
ENDBRANCH   1  17
TORSDOF 4
ENDMDL
MODEL 2
REMARK VINA RESULT:      -6.8     14.226     15.971
REMARK  Name = ZINC000408624461
REMARK  4 active torsions:
REMARK  status: ('A' for Active; 'I' for Inactive)
REMARK    1  A    between atoms: C_1  and  N_2
REMARK    2  A    between atoms: C_1  and  C_17
REMARK    3  A    between atoms: N_18  and  C_20
REMARK    4  A    between atoms: C_25  and  N_27
REMARK                            x       y       z     vdW  Elec       q    Type
REMARK                         _______ _______ _______ _____ _____    ______ ____
ROOT
ATOM      1  C   UNL     1     -41.883 -18.106 -20.908  0.00  0.00    +0.000 C 
ENDROOT
BRANCH   1   2
ATOM      2  N   UNL     1     -42.938 -17.758 -19.970  0.00  0.00    +0.000 N 
ATOM      3  C   UNL     1     -42.969 -16.616 -19.134  0.00  0.00    +0.000 C 
ATOM      4  O   UNL     1     -42.000 -15.821 -19.015  0.00  0.00    +0.000 OA
ATOM      5  C   UNL     1     -44.288 -16.433 -18.447  0.00  0.00    +0.000 C 
ATOM      6  C   UNL     1     -45.142 -17.651 -18.955  0.00  0.00    +0.000 C 
ATOM      7  C   UNL     1     -44.213 -18.371 -19.886  0.00  0.00    +0.000 C 
ATOM      8  O   UNL     1     -44.538 -19.379 -20.566  0.00  0.00    +0.000 OA
ATOM      9  C   UNL     1     -46.425 -17.129 -19.664  0.00  0.00    +0.000 C 
ATOM     10  C   UNL     1     -45.977 -16.178 -20.771  0.00  0.00    +0.000 C 
ATOM     11  C   UNL     1     -45.236 -15.138 -20.349  0.00  0.00    +0.000 C 
ATOM     12  C   UNL     1     -44.987 -15.099 -18.841  0.00  0.00    +0.000 C 
ATOM     13  C   UNL     1     -46.350 -15.134 -18.066  0.00  0.00    +0.000 C 
ATOM     14  C   UNL     1     -47.614 -14.905 -18.892  0.00  0.00    +0.000 C 
ATOM     15  C   UNL     1     -47.203 -16.339 -18.553  0.00  0.00    +0.000 C 
ENDBRANCH   1   2
BRANCH   1  17
ATOM     16  O   UNL     1     -41.184 -20.002 -19.667  0.00  0.00    +0.000 OA
ATOM     17  C   UNL     1     -41.535 -19.555 -20.791  0.00  0.00    +0.000 C 
ATOM     18  N   UNL     1     -41.597 -20.455 -21.907  0.00  0.00    +0.000 N 
ATOM     19  H   UNL     1     -41.275 -21.371 -21.738  0.00  0.00    +0.000 HD
BRANCH  18  20
ATOM     20  C   UNL     1     -42.064 -20.193 -23.237  0.00  0.00    +0.000 A 
ATOM     21  C   UNL     1     -41.156 -19.727 -24.191  0.00  0.00    +0.000 A 
ATOM     22  C   UNL     1     -41.577 -19.462 -25.497  0.00  0.00    +0.000 A 
ATOM     23  C   UNL     1     -42.912 -19.657 -25.865  0.00  0.00    +0.000 A 
ATOM     24 CL   UNL     1     -43.398 -19.303 -27.514  0.00  0.00    +0.000 Cl
ATOM     25  C   UNL     1     -43.837 -20.124 -24.917  0.00  0.00    +0.000 A 
ATOM     26  C   UNL     1     -43.399 -20.396 -23.611  0.00  0.00    +0.000 A 
BRANCH  25  27
ATOM     27  N   UNL     1     -45.211 -20.302 -25.287  0.00  0.00    +0.000 N 
ATOM     28  O   UNL     1     -46.043 -19.381 -25.153  0.00  0.00    +0.000 OA
ATOM     29  O   UNL     1     -46.128 -19.288 -25.140  0.00  0.00    +0.000 OA
ENDBRANCH  25  27
ENDBRANCH  18  20
ENDBRANCH   1  17
TORSDOF 4
ENDMDL
MODEL 3
REMARK VINA RESULT:      -6.7      1.661      2.325
REMARK  Name = ZINC000408624461
REMARK  4 active torsions:
REMARK  status: ('A' for Active; 'I' for Inactive)
REMARK    1  A    between atoms: C_1  and  N_2
REMARK    2  A    between atoms: C_1  and  C_17
REMARK    3  A    between atoms: N_18  and  C_20
REMARK    4  A    between atoms: C_25  and  N_27
REMARK                            x       y       z     vdW  Elec       q    Type
REMARK                         _______ _______ _______ _____ _____    ______ ____
ROOT
ATOM      1  C   UNL     1     -46.561  -7.198 -30.240  0.00  0.00    +0.000 C 
ENDROOT
BRANCH   1   2
ATOM      2  N   UNL     1     -45.899  -5.914 -30.410  0.00  0.00    +0.000 N 
ATOM      3  C   UNL     1     -44.560  -5.713 -30.822  0.00  0.00    +0.000 C 
ATOM      4  O   UNL     1     -43.734  -6.653 -30.968  0.00  0.00    +0.000 OA
ATOM      5  C   UNL     1     -44.247  -4.276 -31.109  0.00  0.00    +0.000 C 
ATOM      6  C   UNL     1     -45.604  -3.538 -30.813  0.00  0.00    +0.000 C 
ATOM      7  C   UNL     1     -46.530  -4.646 -30.413  0.00  0.00    +0.000 C 
ATOM      8  O   UNL     1     -47.752  -4.485 -30.156  0.00  0.00    +0.000 OA
ATOM      9  C   UNL     1     -46.076  -2.784 -32.090  0.00  0.00    +0.000 C 
ATOM     10  C   UNL     1     -46.159  -3.811 -33.217  0.00  0.00    +0.000 C 
ATOM     11  C   UNL     1     -45.008  -4.457 -33.471  0.00  0.00    +0.000 C 
ATOM     12  C   UNL     1     -43.831  -4.040 -32.590  0.00  0.00    +0.000 C 
ATOM     13  C   UNL     1     -43.606  -2.490 -32.684  0.00  0.00    +0.000 C 
ATOM     14  C   UNL     1     -44.350  -1.757 -33.799  0.00  0.00    +0.000 C 
ATOM     15  C   UNL     1     -44.939  -1.745 -32.387  0.00  0.00    +0.000 C 
ENDBRANCH   1   2
BRANCH   1  17
ATOM     16  O   UNL     1     -47.055  -7.217 -32.560  0.00  0.00    +0.000 OA
ATOM     17  C   UNL     1     -46.703  -7.892 -31.557  0.00  0.00    +0.000 C 
ATOM     18  N   UNL     1     -46.443  -9.294 -31.721  0.00  0.00    +0.000 N 
ATOM     19  H   UNL     1     -46.640  -9.665 -32.612  0.00  0.00    +0.000 HD
BRANCH  18  20
ATOM     20  C   UNL     1     -45.937 -10.224 -30.754  0.00  0.00    +0.000 A 
ATOM     21  C   UNL     1     -44.562 -10.471 -30.713  0.00  0.00    +0.000 A 
ATOM     22  C   UNL     1     -44.034 -11.370 -29.783  0.00  0.00    +0.000 A 
ATOM     23  C   UNL     1     -44.873 -12.037 -28.884  0.00  0.00    +0.000 A 
ATOM     24 CL   UNL     1     -44.167 -13.165 -27.740  0.00  0.00    +0.000 Cl
ATOM     25  C   UNL     1     -46.257 -11.800 -28.915  0.00  0.00    +0.000 A 
ATOM     26  C   UNL     1     -46.775 -10.886 -29.847  0.00  0.00    +0.000 A 
BRANCH  25  27
ATOM     27  N   UNL     1     -47.121 -12.500 -28.009  0.00  0.00    +0.000 N 
ATOM     28  O   UNL     1     -47.354 -12.058 -26.865  0.00  0.00    +0.000 OA
ATOM     29  O   UNL     1     -47.380 -12.014 -26.748  0.00  0.00    +0.000 OA
ENDBRANCH  25  27
ENDBRANCH  18  20
ENDBRANCH   1  17
TORSDOF 4
ENDMDL
