MODEL 1
REMARK VINA RESULT:      -6.2      0.000      0.000
REMARK  Name = ZINC000096114852
REMARK  11 active torsions:
REMARK  status: ('A' for Active; 'I' for Inactive)
REMARK    1  A    between atoms: C_1  and  C_28
REMARK    2  A    between atoms: C_2  and  O_3
REMARK    3  A    between atoms: C_5  and  O_6
REMARK    4  A    between atoms: C_10  and  O_11
REMARK    5  A    between atoms: C_12  and  C_18
REMARK    6  A    between atoms: C_21  and  O_22
REMARK    7  A    between atoms: C_23  and  O_24
REMARK    8  A    between atoms: C_28  and  C_29
REMARK    9  A    between atoms: C_28  and  C_36
REMARK   10  A    between atoms: C_36  and  C_37
REMARK   11  A    between atoms: C_37  and  O_40
REMARK                            x       y       z     vdW  Elec       q    Type
REMARK                         _______ _______ _______ _____ _____    ______ ____
ROOT
ATOM      1  C   UNL     1     -46.111  -5.601 -30.177  0.00  0.00    +0.000 A 
ATOM      2  C   UNL     1     -46.335  -4.474 -30.984  0.00  0.00    +0.000 A 
ATOM      3  C   UNL     1     -46.566  -4.619 -32.350  0.00  0.00    +0.000 A 
ATOM      4  C   UNL     1     -46.583  -5.879 -32.943  0.00  0.00    +0.000 A 
ATOM      5  C   UNL     1     -46.377  -7.032 -32.153  0.00  0.00    +0.000 A 
ATOM      6  C   UNL     1     -46.406  -8.338 -32.685  0.00  0.00    +0.000 A 
ATOM      7  O   UNL     1     -46.615  -8.538 -33.913  0.00  0.00    +0.000 OA
ATOM      8  C   UNL     1     -46.216  -9.434 -31.839  0.00  0.00    +0.000 A 
ATOM      9  C   UNL     1     -45.996  -9.213 -30.464  0.00  0.00    +0.000 A 
ATOM     10  O   UNL     1     -45.976  -7.964 -30.003  0.00  0.00    +0.000 OA
ATOM     11  C   UNL     1     -46.145  -6.887 -30.763  0.00  0.00    +0.000 A 
ENDROOT
BRANCH   9  12
ATOM     12  C   UNL     1     -45.790 -10.313 -29.487  0.00  0.00    +0.000 A 
ATOM     13  C   UNL     1     -44.483 -10.640 -29.093  0.00  0.00    +0.000 A 
ATOM     14  C   UNL     1     -44.248 -11.684 -28.194  0.00  0.00    +0.000 A 
ATOM     15  C   UNL     1     -45.318 -12.420 -27.681  0.00  0.00    +0.000 A 
ATOM     16  C   UNL     1     -46.627 -12.110 -28.068  0.00  0.00    +0.000 A 
ATOM     17  C   UNL     1     -46.857 -11.064 -28.967  0.00  0.00    +0.000 A 
BRANCH  15  18
ATOM     18  O   UNL     1     -45.075 -13.460 -26.792  0.00  0.00    +0.000 OA
ATOM     19  H   UNL     1     -44.239 -13.883 -26.782  0.00  0.00    +0.000 HD
ENDBRANCH  15  18
BRANCH  16  20
ATOM     20  O   UNL     1     -47.699 -12.840 -27.573  0.00  0.00    +0.000 OA
ATOM     21  H   UNL     1     -48.116 -13.484 -28.111  0.00  0.00    +0.000 HD
ENDBRANCH  16  20
ENDBRANCH   9  12
BRANCH   8  22
ATOM     22  O   UNL     1     -46.267 -10.721 -32.370  0.00  0.00    +0.000 OA
ATOM     23  H   UNL     1     -47.061 -11.039 -32.752  0.00  0.00    +0.000 HD
ENDBRANCH   8  22
BRANCH   4  24
ATOM     24  O   UNL     1     -46.811  -5.963 -34.312  0.00  0.00    +0.000 OA
ATOM     25  H   UNL     1     -47.283  -5.282 -34.751  0.00  0.00    +0.000 HD
ENDBRANCH   4  24
BRANCH   2  26
ATOM     26  O   UNL     1     -46.321  -3.196 -30.435  0.00  0.00    +0.000 OA
ATOM     27  H   UNL     1     -47.017  -2.598 -30.624  0.00  0.00    +0.000 HD
ENDBRANCH   2  26
BRANCH   1  28
ATOM     28  C   UNL     1     -45.834  -5.382 -28.709  0.00  0.00    +0.000 C 
BRANCH  28  29
ATOM     29  C   UNL     1     -44.604  -6.082 -28.200  0.00  0.00    +0.000 A 
ATOM     30  C   UNL     1     -44.734  -6.883 -27.058  0.00  0.00    +0.000 A 
ATOM     31  C   UNL     1     -43.631  -7.558 -26.532  0.00  0.00    +0.000 A 
ATOM     32  C   UNL     1     -42.384  -7.439 -27.148  0.00  0.00    +0.000 A 
ATOM     33  C   UNL     1     -42.240  -6.641 -28.286  0.00  0.00    +0.000 A 
ATOM     34  C   UNL     1     -43.341  -5.961 -28.813  0.00  0.00    +0.000 A 
ATOM     35  F   UNL     1     -43.172  -5.211 -29.928  0.00  0.00    +0.000 F 
ENDBRANCH  28  29
BRANCH  28  36
ATOM     36  C   UNL     1     -47.050  -5.456 -27.789  0.00  0.00    +0.000 C 
BRANCH  36  37
ATOM     37  C   UNL     1     -47.231  -4.163 -27.061  0.00  0.00    +0.000 C 
ATOM     38  O   UNL     1     -47.302  -3.093 -27.722  0.00  0.00    +0.000 OA
BRANCH  37  40
ATOM     39  C   UNL     1     -47.230  -2.888 -24.944  0.00  0.00    +0.000 C 
ATOM     40  O   UNL     1     -47.299  -4.108 -25.667  0.00  0.00    +0.000 OA
ENDBRANCH  37  40
ENDBRANCH  36  37
ENDBRANCH  28  36
ENDBRANCH   1  28
TORSDOF 11
ENDMDL
MODEL 2
REMARK VINA RESULT:      -6.2      7.315     12.384
REMARK  Name = ZINC000096114852
REMARK  11 active torsions:
REMARK  status: ('A' for Active; 'I' for Inactive)
REMARK    1  A    between atoms: C_1  and  C_28
REMARK    2  A    between atoms: C_2  and  O_3
REMARK    3  A    between atoms: C_5  and  O_6
REMARK    4  A    between atoms: C_10  and  O_11
REMARK    5  A    between atoms: C_12  and  C_18
REMARK    6  A    between atoms: C_21  and  O_22
REMARK    7  A    between atoms: C_23  and  O_24
REMARK    8  A    between atoms: C_28  and  C_29
REMARK    9  A    between atoms: C_28  and  C_36
REMARK   10  A    between atoms: C_36  and  C_37
REMARK   11  A    between atoms: C_37  and  O_40
REMARK                            x       y       z     vdW  Elec       q    Type
REMARK                         _______ _______ _______ _____ _____    ______ ____
ROOT
ATOM      1  C   UNL     1     -45.172 -17.284 -22.534  0.00  0.00    +0.000 A 
ATOM      2  C   UNL     1     -45.211 -17.626 -21.172  0.00  0.00    +0.000 A 
ATOM      3  C   UNL     1     -45.456 -16.652 -20.207  0.00  0.00    +0.000 A 
ATOM      4  C   UNL     1     -45.670 -15.324 -20.569  0.00  0.00    +0.000 A 
ATOM      5  C   UNL     1     -45.651 -14.954 -21.932  0.00  0.00    +0.000 A 
ATOM      6  C   UNL     1     -45.884 -13.633 -22.368  0.00  0.00    +0.000 A 
ATOM      7  O   UNL     1     -46.117 -12.705 -21.546  0.00  0.00    +0.000 OA
ATOM      8  C   UNL     1     -45.872 -13.343 -23.736  0.00  0.00    +0.000 A 
ATOM      9  C   UNL     1     -45.626 -14.382 -24.657  0.00  0.00    +0.000 A 
ATOM     10  O   UNL     1     -45.411 -15.614 -24.203  0.00  0.00    +0.000 OA
ATOM     11  C   UNL     1     -45.405 -15.943 -22.916  0.00  0.00    +0.000 A 
ENDROOT
BRANCH   9  12
ATOM     12  C   UNL     1     -45.600 -14.172 -26.128  0.00  0.00    +0.000 A 
ATOM     13  C   UNL     1     -44.564 -14.746 -26.881  0.00  0.00    +0.000 A 
ATOM     14  C   UNL     1     -44.493 -14.552 -28.263  0.00  0.00    +0.000 A 
ATOM     15  C   UNL     1     -45.456 -13.777 -28.912  0.00  0.00    +0.000 A 
ATOM     16  C   UNL     1     -46.494 -13.193 -28.174  0.00  0.00    +0.000 A 
ATOM     17  C   UNL     1     -46.561 -13.391 -26.791  0.00  0.00    +0.000 A 
BRANCH  15  18
ATOM     18  O   UNL     1     -45.376 -13.584 -30.285  0.00  0.00    +0.000 OA
ATOM     19  H   UNL     1     -44.849 -12.891 -30.631  0.00  0.00    +0.000 HD
ENDBRANCH  15  18
BRANCH  16  20
ATOM     20  O   UNL     1     -47.452 -12.412 -28.804  0.00  0.00    +0.000 OA
ATOM     21  H   UNL     1     -48.198 -12.107 -28.325  0.00  0.00    +0.000 HD
ENDBRANCH  16  20
ENDBRANCH   9  12
BRANCH   8  22
ATOM     22  O   UNL     1     -46.124 -12.040 -24.158  0.00  0.00    +0.000 OA
ATOM     23  H   UNL     1     -46.676 -11.886 -24.899  0.00  0.00    +0.000 HD
ENDBRANCH   8  22
BRANCH   4  24
ATOM     24  O   UNL     1     -45.902 -14.393 -19.562  0.00  0.00    +0.000 OA
ATOM     25  H   UNL     1     -46.712 -14.407 -19.090  0.00  0.00    +0.000 HD
ENDBRANCH   4  24
BRANCH   2  26
ATOM     26  O   UNL     1     -44.999 -18.938 -20.766  0.00  0.00    +0.000 OA
ATOM     27  H   UNL     1     -45.678 -19.576 -20.867  0.00  0.00    +0.000 HD
ENDBRANCH   2  26
BRANCH   1  28
ATOM     28  C   UNL     1     -44.869 -18.375 -23.533  0.00  0.00    +0.000 C 
BRANCH  28  29
ATOM     29  C   UNL     1     -43.406 -18.558 -23.826  0.00  0.00    +0.000 A 
ATOM     30  C   UNL     1     -42.720 -17.492 -24.421  0.00  0.00    +0.000 A 
ATOM     31  C   UNL     1     -41.361 -17.598 -24.721  0.00  0.00    +0.000 A 
ATOM     32  C   UNL     1     -40.672 -18.777 -24.425  0.00  0.00    +0.000 A 
ATOM     33  C   UNL     1     -41.346 -19.849 -23.835  0.00  0.00    +0.000 A 
ATOM     34  C   UNL     1     -42.707 -19.748 -23.535  0.00  0.00    +0.000 A 
ATOM     35  F   UNL     1     -43.325 -20.798 -22.945  0.00  0.00    +0.000 F 
ENDBRANCH  28  29
BRANCH  28  36
ATOM     36  C   UNL     1     -45.786 -18.424 -24.754  0.00  0.00    +0.000 C 
BRANCH  36  37
ATOM     37  C   UNL     1     -45.330 -19.486 -25.703  0.00  0.00    +0.000 C 
ATOM     38  O   UNL     1     -45.534 -20.695 -25.413  0.00  0.00    +0.000 OA
BRANCH  37  40
ATOM     39  C   UNL     1     -43.415 -19.751 -27.242  0.00  0.00    +0.000 C 
ATOM     40  O   UNL     1     -44.663 -19.172 -26.889  0.00  0.00    +0.000 OA
ENDBRANCH  37  40
ENDBRANCH  36  37
ENDBRANCH  28  36
ENDBRANCH   1  28
TORSDOF 11
ENDMDL
MODEL 3
REMARK VINA RESULT:      -6.2      9.802     13.642
REMARK  Name = ZINC000096114852
REMARK  11 active torsions:
REMARK  status: ('A' for Active; 'I' for Inactive)
REMARK    1  A    between atoms: C_1  and  C_28
REMARK    2  A    between atoms: C_2  and  O_3
REMARK    3  A    between atoms: C_5  and  O_6
REMARK    4  A    between atoms: C_10  and  O_11
REMARK    5  A    between atoms: C_12  and  C_18
REMARK    6  A    between atoms: C_21  and  O_22
REMARK    7  A    between atoms: C_23  and  O_24
REMARK    8  A    between atoms: C_28  and  C_29
REMARK    9  A    between atoms: C_28  and  C_36
REMARK   10  A    between atoms: C_36  and  C_37
REMARK   11  A    between atoms: C_37  and  O_40
REMARK                            x       y       z     vdW  Elec       q    Type
REMARK                         _______ _______ _______ _____ _____    ______ ____
ROOT
ATOM      1  C   UNL     1     -44.313 -18.324 -22.363  0.00  0.00    +0.000 A 
ATOM      2  C   UNL     1     -43.972 -19.374 -23.231  0.00  0.00    +0.000 A 
ATOM      3  C   UNL     1     -44.183 -19.253 -24.603  0.00  0.00    +0.000 A 
ATOM      4  C   UNL     1     -44.732 -18.092 -25.142  0.00  0.00    +0.000 A 
ATOM      5  C   UNL     1     -45.070 -17.014 -24.295  0.00  0.00    +0.000 A 
ATOM      6  C   UNL     1     -45.606 -15.802 -24.778  0.00  0.00    +0.000 A 
ATOM      7  O   UNL     1     -45.817 -15.626 -26.009  0.00  0.00    +0.000 OA
ATOM      8  C   UNL     1     -45.897 -14.768 -23.883  0.00  0.00    +0.000 A 
ATOM      9  C   UNL     1     -45.649 -14.958 -22.508  0.00  0.00    +0.000 A 
ATOM     10  O   UNL     1     -45.143 -16.117 -22.094  0.00  0.00    +0.000 OA
ATOM     11  C   UNL     1     -44.853 -17.133 -22.900  0.00  0.00    +0.000 A 
ENDROOT
BRANCH   9  12
ATOM     12  C   UNL     1     -45.919 -13.917 -21.483  0.00  0.00    +0.000 A 
ATOM     13  C   UNL     1     -47.179 -13.879 -20.865  0.00  0.00    +0.000 A 
ATOM     14  C   UNL     1     -47.478 -12.900 -19.913  0.00  0.00    +0.000 A 
ATOM     15  C   UNL     1     -46.523 -11.941 -19.570  0.00  0.00    +0.000 A 
ATOM     16  C   UNL     1     -45.263 -11.962 -20.182  0.00  0.00    +0.000 A 
ATOM     17  C   UNL     1     -44.968 -12.944 -21.133  0.00  0.00    +0.000 A 
BRANCH  15  18
ATOM     18  O   UNL     1     -46.830 -10.968 -18.628  0.00  0.00    +0.000 OA
ATOM     19  H   UNL     1     -46.382 -10.145 -18.640  0.00  0.00    +0.000 HD
ENDBRANCH  15  18
BRANCH  16  20
ATOM     20  O   UNL     1     -44.308 -11.009 -19.858  0.00  0.00    +0.000 OA
ATOM     21  H   UNL     1     -44.418 -10.475 -19.095  0.00  0.00    +0.000 HD
ENDBRANCH  16  20
ENDBRANCH   9  12
BRANCH   8  22
ATOM     22  O   UNL     1     -46.407 -13.567 -24.371  0.00  0.00    +0.000 OA
ATOM     23  H   UNL     1     -47.332 -13.421 -24.383  0.00  0.00    +0.000 HD
ENDBRANCH   8  22
BRANCH   4  24
ATOM     24  O   UNL     1     -44.927 -18.030 -26.518  0.00  0.00    +0.000 OA
ATOM     25  H   UNL     1     -45.393 -18.715 -26.956  0.00  0.00    +0.000 HD
ENDBRANCH   4  24
BRANCH   2  26
ATOM     26  O   UNL     1     -43.426 -20.553 -22.736  0.00  0.00    +0.000 OA
ATOM     27  H   UNL     1     -43.642 -20.842 -21.871  0.00  0.00    +0.000 HD
ENDBRANCH   2  26
BRANCH   1  28
ATOM     28  C   UNL     1     -44.092 -18.524 -20.883  0.00  0.00    +0.000 C 
BRANCH  28  29
ATOM     29  C   UNL     1     -45.018 -17.727 -20.006  0.00  0.00    +0.000 A 
ATOM     30  C   UNL     1     -44.479 -16.643 -19.303  0.00  0.00    +0.000 A 
ATOM     31  C   UNL     1     -45.284 -15.864 -18.469  0.00  0.00    +0.000 A 
ATOM     32  C   UNL     1     -46.641 -16.164 -18.333  0.00  0.00    +0.000 A 
ATOM     33  C   UNL     1     -47.190 -17.245 -19.026  0.00  0.00    +0.000 A 
ATOM     34  C   UNL     1     -46.387 -18.029 -19.859  0.00  0.00    +0.000 A 
ATOM     35  F   UNL     1     -46.955 -19.058 -20.532  0.00  0.00    +0.000 F 
ENDBRANCH  28  29
BRANCH  28  36
ATOM     36  C   UNL     1     -42.634 -18.551 -20.431  0.00  0.00    +0.000 C 
BRANCH  36  37
ATOM     37  C   UNL     1     -42.394 -19.713 -19.521  0.00  0.00    +0.000 C 
ATOM     38  O   UNL     1     -42.337 -19.516 -18.278  0.00  0.00    +0.000 OA
BRANCH  37  40
ATOM     39  C   UNL     1     -41.462 -21.993 -19.317  0.00  0.00    +0.000 C 
ATOM     40  O   UNL     1     -42.207 -21.006 -20.015  0.00  0.00    +0.000 OA
ENDBRANCH  37  40
ENDBRANCH  36  37
ENDBRANCH  28  36
ENDBRANCH   1  28
TORSDOF 11
ENDMDL
