MODEL 1
REMARK VINA RESULT:      -6.4      0.000      0.000
REMARK  Name = ZINC000030726767 ZINC30726767 PubChem-37870901
REMARK  7 active torsions:
REMARK  status: ('A' for Active; 'I' for Inactive)
REMARK    1  A    between atoms: N_1  and  C_10
REMARK    2  A    between atoms: C_2  and  C_18
REMARK    3  A    between atoms: C_5  and  O_15
REMARK    4  A    between atoms: O_15  and  C_17
REMARK    5  A    between atoms: C_18  and  C_19
REMARK    6  A    between atoms: C_19  and  C_20
REMARK    7  A    between atoms: C_29  and  O_32
REMARK                            x       y       z     vdW  Elec       q    Type
REMARK                         _______ _______ _______ _____ _____    ______ ____
ROOT
ATOM      1  N   UNL     1     -42.779 -16.423 -26.337  0.00  0.00    +0.000 N 
ATOM      2  C   UNL     1     -42.754 -17.855 -26.391  0.00  0.00    +0.000 C 
ATOM      3  O   UNL     1     -41.658 -18.452 -26.231  0.00  0.00    +0.000 OA
ATOM      4  H   UNL     1     -41.960 -15.985 -26.010  0.00  0.00    +0.000 HD
ENDROOT
BRANCH   1  10
ATOM      5  C   UNL     1     -44.734 -15.079 -25.694  0.00  0.00    +0.000 A 
ATOM      6  C   UNL     1     -45.791 -14.205 -26.030  0.00  0.00    +0.000 A 
ATOM      7  C   UNL     1     -45.945 -13.828 -27.360  0.00  0.00    +0.000 A 
ATOM      8  C   UNL     1     -45.098 -14.275 -28.327  0.00  0.00    +0.000 A 
ATOM      9  C   UNL     1     -44.042 -15.133 -28.037  0.00  0.00    +0.000 A 
ATOM     10  C   UNL     1     -43.862 -15.554 -26.704  0.00  0.00    +0.000 A 
ATOM     11  O   UNL     1     -45.436 -13.772 -29.563  0.00  0.00    +0.000 OA
ATOM     12  C   UNL     1     -46.591 -12.939 -29.453  0.00  0.00    +0.000 C 
ATOM     13  C   UNL     1     -46.967 -12.931 -27.954  0.00  0.00    +0.000 C 
ATOM     14  C   UNL     1     -46.255 -11.533 -29.905  0.00  0.00    +0.000 C 
BRANCH   5  15
ATOM     15  O   UNL     1     -44.533 -15.490 -24.371  0.00  0.00    +0.000 OA
BRANCH  15  17
ATOM     16  C   UNL     1     -45.976 -15.045 -22.510  0.00  0.00    +0.000 C 
ATOM     17  C   UNL     1     -44.728 -14.627 -23.259  0.00  0.00    +0.000 C 
ENDBRANCH  15  17
ENDBRANCH   5  15
ENDBRANCH   1  10
BRANCH   2  18
ATOM     18  C   UNL     1     -43.996 -18.668 -26.547  0.00  0.00    +0.000 C 
BRANCH  18  19
ATOM     19  C   UNL     1     -43.921 -19.895 -25.655  0.00  0.00    +0.000 C 
BRANCH  19  20
ATOM     20  C   UNL     1     -44.153 -19.521 -24.219  0.00  0.00    +0.000 A 
ATOM     21  C   UNL     1     -43.180 -19.849 -23.242  0.00  0.00    +0.000 A 
ATOM     22  C   UNL     1     -43.433 -19.453 -21.920  0.00  0.00    +0.000 A 
ATOM     23  C   UNL     1     -44.605 -18.828 -21.598  0.00  0.00    +0.000 A 
ATOM     24  N   UNL     1     -45.548 -18.512 -22.518  0.00  0.00    +0.000 NA
ATOM     25  C   UNL     1     -45.336 -18.830 -23.828  0.00  0.00    +0.000 A 
ATOM     26  C   UNL     1     -46.370 -18.437 -24.828  0.00  0.00    +0.000 C 
ATOM     27  N   UNL     1     -44.683 -18.632 -20.275  0.00  0.00    +0.000 N 
ATOM     28  N   UNL     1     -43.582 -19.105 -19.706  0.00  0.00    +0.000 NA
ATOM     29  C   UNL     1     -42.789 -19.599 -20.688  0.00  0.00    +0.000 A 
ATOM     30  C   UNL     1     -45.781 -18.022 -19.547  0.00  0.00    +0.000 C 
ATOM     31  C   UNL     1     -41.980 -20.660 -23.605  0.00  0.00    +0.000 C 
BRANCH  29  32
ATOM     32  O   UNL     1     -41.529 -20.140 -20.422  0.00  0.00    +0.000 OA
ATOM     33  C   UNL     1     -41.347 -21.462 -19.943  0.00  0.00    +0.000 C 
ENDBRANCH  29  32
ENDBRANCH  19  20
ENDBRANCH  18  19
ENDBRANCH   2  18
TORSDOF 7
ENDMDL
MODEL 2
REMARK VINA RESULT:      -6.3      9.656     14.911
REMARK  Name = ZINC000030726767 ZINC30726767 PubChem-37870901
REMARK  7 active torsions:
REMARK  status: ('A' for Active; 'I' for Inactive)
REMARK    1  A    between atoms: N_1  and  C_10
REMARK    2  A    between atoms: C_2  and  C_18
REMARK    3  A    between atoms: C_5  and  O_15
REMARK    4  A    between atoms: O_15  and  C_17
REMARK    5  A    between atoms: C_18  and  C_19
REMARK    6  A    between atoms: C_19  and  C_20
REMARK    7  A    between atoms: C_29  and  O_32
REMARK                            x       y       z     vdW  Elec       q    Type
REMARK                         _______ _______ _______ _____ _____    ______ ____
ROOT
ATOM      1  N   UNL     1     -45.105  -2.597 -33.945  0.00  0.00    +0.000 N 
ATOM      2  C   UNL     1     -46.163  -3.069 -33.101  0.00  0.00    +0.000 C 
ATOM      3  O   UNL     1     -47.346  -3.033 -33.528  0.00  0.00    +0.000 OA
ATOM      4  H   UNL     1     -45.342  -2.422 -34.884  0.00  0.00    +0.000 HD
ENDROOT
BRANCH   1  10
ATOM      5  C   UNL     1     -42.790  -3.392 -33.720  0.00  0.00    +0.000 A 
ATOM      6  C   UNL     1     -41.438  -3.164 -33.387  0.00  0.00    +0.000 A 
ATOM      7  C   UNL     1     -41.069  -1.904 -32.925  0.00  0.00    +0.000 A 
ATOM      8  C   UNL     1     -41.979  -0.900 -32.803  0.00  0.00    +0.000 A 
ATOM      9  C   UNL     1     -43.320  -1.082 -33.124  0.00  0.00    +0.000 A 
ATOM     10  C   UNL     1     -43.739  -2.350 -33.578  0.00  0.00    +0.000 A 
ATOM     11  O   UNL     1     -41.394   0.255 -32.335  0.00  0.00    +0.000 OA
ATOM     12  C   UNL     1     -40.000   0.038 -32.107  0.00  0.00    +0.000 C 
ATOM     13  C   UNL     1     -39.725  -1.426 -32.516  0.00  0.00    +0.000 C 
ATOM     14  C   UNL     1     -39.187   0.976 -32.975  0.00  0.00    +0.000 C 
BRANCH   5  15
ATOM     15  O   UNL     1     -43.215  -4.641 -34.188  0.00  0.00    +0.000 OA
BRANCH  15  17
ATOM     16  C   UNL     1     -43.181  -6.219 -32.384  0.00  0.00    +0.000 C 
ATOM     17  C   UNL     1     -42.637  -5.864 -33.752  0.00  0.00    +0.000 C 
ENDBRANCH  15  17
ENDBRANCH   5  15
ENDBRANCH   1  10
BRANCH   2  18
ATOM     18  C   UNL     1     -45.902  -3.679 -31.763  0.00  0.00    +0.000 C 
BRANCH  18  19
ATOM     19  C   UNL     1     -47.188  -4.269 -31.210  0.00  0.00    +0.000 C 
BRANCH  19  20
ATOM     20  C   UNL     1     -46.912  -5.560 -30.493  0.00  0.00    +0.000 A 
ATOM     21  C   UNL     1     -46.688  -6.745 -31.239  0.00  0.00    +0.000 A 
ATOM     22  C   UNL     1     -46.409  -7.917 -30.521  0.00  0.00    +0.000 A 
ATOM     23  C   UNL     1     -46.414  -7.909 -29.154  0.00  0.00    +0.000 A 
ATOM     24  N   UNL     1     -46.632  -6.788 -28.426  0.00  0.00    +0.000 NA
ATOM     25  C   UNL     1     -46.862  -5.607 -29.070  0.00  0.00    +0.000 A 
ATOM     26  C   UNL     1     -47.059  -4.379 -28.247  0.00  0.00    +0.000 C 
ATOM     27  N   UNL     1     -46.225  -9.147 -28.678  0.00  0.00    +0.000 N 
ATOM     28  N   UNL     1     -46.084  -9.982 -29.699  0.00  0.00    +0.000 NA
ATOM     29  C   UNL     1     -46.174  -9.257 -30.841  0.00  0.00    +0.000 A 
ATOM     30  C   UNL     1     -46.191  -9.548 -27.283  0.00  0.00    +0.000 C 
ATOM     31  C   UNL     1     -46.834  -6.746 -32.725  0.00  0.00    +0.000 C 
BRANCH  29  32
ATOM     32  O   UNL     1     -46.028  -9.840 -32.101  0.00  0.00    +0.000 OA
ATOM     33  C   UNL     1     -45.454 -11.122 -32.293  0.00  0.00    +0.000 C 
ENDBRANCH  29  32
ENDBRANCH  19  20
ENDBRANCH  18  19
ENDBRANCH   2  18
TORSDOF 7
ENDMDL
MODEL 3
REMARK VINA RESULT:      -6.2      8.909     14.985
REMARK  Name = ZINC000030726767 ZINC30726767 PubChem-37870901
REMARK  7 active torsions:
REMARK  status: ('A' for Active; 'I' for Inactive)
REMARK    1  A    between atoms: N_1  and  C_10
REMARK    2  A    between atoms: C_2  and  C_18
REMARK    3  A    between atoms: C_5  and  O_15
REMARK    4  A    between atoms: O_15  and  C_17
REMARK    5  A    between atoms: C_18  and  C_19
REMARK    6  A    between atoms: C_19  and  C_20
REMARK    7  A    between atoms: C_29  and  O_32
REMARK                            x       y       z     vdW  Elec       q    Type
REMARK                         _______ _______ _______ _____ _____    ______ ____
ROOT
ATOM      1  N   UNL     1     -46.643  -5.827 -28.723  0.00  0.00    +0.000 N 
ATOM      2  C   UNL     1     -47.254  -5.065 -29.773  0.00  0.00    +0.000 C 
ATOM      3  O   UNL     1     -47.756  -3.944 -29.500  0.00  0.00    +0.000 OA
ATOM      4  H   UNL     1     -46.500  -5.356 -27.870  0.00  0.00    +0.000 HD
ENDROOT
BRANCH   1  10
ATOM      5  C   UNL     1     -44.906  -7.523 -28.343  0.00  0.00    +0.000 A 
ATOM      6  C   UNL     1     -44.474  -8.867 -28.362  0.00  0.00    +0.000 A 
ATOM      7  C   UNL     1     -45.359  -9.845 -28.805  0.00  0.00    +0.000 A 
ATOM      8  C   UNL     1     -46.621  -9.531 -29.204  0.00  0.00    +0.000 A 
ATOM      9  C   UNL     1     -47.088  -8.220 -29.196  0.00  0.00    +0.000 A 
ATOM     10  C   UNL     1     -46.216  -7.197 -28.773  0.00  0.00    +0.000 A 
ATOM     11  O   UNL     1     -47.319 -10.651 -29.594  0.00  0.00    +0.000 OA
ATOM     12  C   UNL     1     -46.491 -11.809 -29.473  0.00  0.00    +0.000 C 
ATOM     13  C   UNL     1     -45.140 -11.309 -28.915  0.00  0.00    +0.000 C 
ATOM     14  C   UNL     1     -47.117 -12.787 -28.499  0.00  0.00    +0.000 C 
BRANCH   5  15
ATOM     15  O   UNL     1     -44.057  -6.500 -27.908  0.00  0.00    +0.000 OA
BRANCH  15  17
ATOM     16  C   UNL     1     -43.012  -5.740 -29.928  0.00  0.00    +0.000 C 
ATOM     17  C   UNL     1     -42.798  -6.236 -28.513  0.00  0.00    +0.000 C 
ENDBRANCH  15  17
ENDBRANCH   5  15
ENDBRANCH   1  10
BRANCH   2  18
ATOM     18  C   UNL     1     -47.243  -5.518 -31.195  0.00  0.00    +0.000 C 
BRANCH  18  19
ATOM     19  C   UNL     1     -47.049  -4.323 -32.112  0.00  0.00    +0.000 C 
BRANCH  19  20
ATOM     20  C   UNL     1     -45.671  -4.332 -32.710  0.00  0.00    +0.000 A 
ATOM     21  C   UNL     1     -44.715  -3.373 -32.289  0.00  0.00    +0.000 A 
ATOM     22  C   UNL     1     -43.436  -3.443 -32.859  0.00  0.00    +0.000 A 
ATOM     23  C   UNL     1     -43.158  -4.369 -33.824  0.00  0.00    +0.000 A 
ATOM     24  N   UNL     1     -44.060  -5.289 -34.242  0.00  0.00    +0.000 NA
ATOM     25  C   UNL     1     -45.308  -5.301 -33.689  0.00  0.00    +0.000 A 
ATOM     26  C   UNL     1     -46.271  -6.348 -34.137  0.00  0.00    +0.000 C 
ATOM     27  N   UNL     1     -41.918  -4.194 -34.299  0.00  0.00    +0.000 N 
ATOM     28  N   UNL     1     -41.356  -3.173 -33.665  0.00  0.00    +0.000 NA
ATOM     29  C   UNL     1     -42.254  -2.703 -32.765  0.00  0.00    +0.000 A 
ATOM     30  C   UNL     1     -41.269  -4.962 -35.346  0.00  0.00    +0.000 C 
ATOM     31  C   UNL     1     -45.098  -2.284 -31.341  0.00  0.00    +0.000 C 
BRANCH  29  32
ATOM     32  O   UNL     1     -41.954  -1.644 -31.904  0.00  0.00    +0.000 OA
ATOM     33  C   UNL     1     -41.961  -0.289 -32.321  0.00  0.00    +0.000 C 
ENDBRANCH  29  32
ENDBRANCH  19  20
ENDBRANCH  18  19
ENDBRANCH   2  18
TORSDOF 7
ENDMDL
