MODEL 1
REMARK VINA RESULT:      -6.5      0.000      0.000
REMARK  Name = ZINC000031806781
REMARK  3 active torsions:
REMARK  status: ('A' for Active; 'I' for Inactive)
REMARK    1  A    between atoms: C_1  and  C_28
REMARK    2  A    between atoms: C_24  and  O_31
REMARK    3  A    between atoms: C_27  and  O_32
REMARK                            x       y       z     vdW  Elec       q    Type
REMARK                         _______ _______ _______ _____ _____    ______ ____
ROOT
ATOM      1  C   UNL     1     -45.823  -6.313 -28.579  0.00  0.00    +0.000 C 
ATOM      2  S   UNL     1     -47.270  -5.255 -28.893  0.00  0.00    +0.000 S 
ATOM      3  C   UNL     1     -47.423  -5.816 -30.601  0.00  0.00    +0.000 C 
ATOM      4  C   UNL     1     -46.681  -4.896 -31.496  0.00  0.00    +0.000 C 
ATOM      5  O   UNL     1     -47.322  -4.276 -32.383  0.00  0.00    +0.000 OA
ATOM      6  N   UNL     1     -45.265  -4.709 -31.410  0.00  0.00    +0.000 N 
ATOM      7  C   UNL     1     -44.316  -5.211 -30.452  0.00  0.00    +0.000 A 
ATOM      8  C   UNL     1     -44.548  -5.916 -29.272  0.00  0.00    +0.000 A 
ATOM      9  C   UNL     1     -43.277  -6.213 -28.808  0.00  0.00    +0.000 A 
ATOM     10  C   UNL     1     -42.947  -6.970 -27.569  0.00  0.00    +0.000 C 
ATOM     11  N   UNL     1     -42.346  -5.723 -29.646  0.00  0.00    +0.000 NA
ATOM     12  N   UNL     1     -42.980  -5.102 -30.628  0.00  0.00    +0.000 N 
ATOM     13  H   UNL     1     -44.878  -4.149 -32.120  0.00  0.00    +0.000 HD
ATOM     14  C   UNL     1     -42.288  -4.488 -31.725  0.00  0.00    +0.000 A 
ATOM     15  N   UNL     1     -41.144  -5.053 -32.216  0.00  0.00    +0.000 NA
ATOM     16  C   UNL     1     -40.444  -4.478 -33.244  0.00  0.00    +0.000 A 
ATOM     17  N   UNL     1     -40.867  -3.303 -33.800  0.00  0.00    +0.000 NA
ATOM     18  C   UNL     1     -41.993  -2.734 -33.306  0.00  0.00    +0.000 A 
ATOM     19  N   UNL     1     -42.526  -1.565 -33.680  0.00  0.00    +0.000 N 
ATOM     20  C   UNL     1     -43.587  -1.443 -32.835  0.00  0.00    +0.000 A 
ATOM     21  N   UNL     1     -43.719  -2.480 -31.963  0.00  0.00    +0.000 NA
ATOM     22  C   UNL     1     -42.700  -3.284 -32.297  0.00  0.00    +0.000 A 
ATOM     23  H   UNL     1     -42.226  -0.949 -34.387  0.00  0.00    +0.000 HD
ENDROOT
BRANCH   1  28
ATOM     24  C   UNL     1     -46.103  -9.895 -29.784  0.00  0.00    +0.000 A 
ATOM     25  C   UNL     1     -46.602 -10.554 -28.660  0.00  0.00    +0.000 A 
ATOM     26  C   UNL     1     -46.861  -9.845 -27.486  0.00  0.00    +0.000 A 
ATOM     27  C   UNL     1     -46.627  -8.462 -27.417  0.00  0.00    +0.000 A 
ATOM     28  C   UNL     1     -46.126  -7.790 -28.555  0.00  0.00    +0.000 A 
ATOM     29  C   UNL     1     -45.867  -8.515 -29.724  0.00  0.00    +0.000 A 
BRANCH  24  31
ATOM     30  C   UNL     1     -45.883 -12.053 -30.972  0.00  0.00    +0.000 C 
ATOM     31  O   UNL     1     -45.853 -10.633 -30.945  0.00  0.00    +0.000 OA
ENDBRANCH  24  31
BRANCH  27  32
ATOM     32  O   UNL     1     -46.891  -7.753 -26.239  0.00  0.00    +0.000 OA
ATOM     33  C   UNL     1     -47.553  -8.330 -25.121  0.00  0.00    +0.000 C 
ENDBRANCH  27  32
ENDBRANCH   1  28
TORSDOF 3
ENDMDL
MODEL 2
REMARK VINA RESULT:      -6.5      2.992      4.564
REMARK  Name = ZINC000031806781
REMARK  3 active torsions:
REMARK  status: ('A' for Active; 'I' for Inactive)
REMARK    1  A    between atoms: C_1  and  C_28
REMARK    2  A    between atoms: C_24  and  O_31
REMARK    3  A    between atoms: C_27  and  O_32
REMARK                            x       y       z     vdW  Elec       q    Type
REMARK                         _______ _______ _______ _____ _____    ______ ____
ROOT
ATOM      1  C   UNL     1     -46.568  -7.232 -27.302  0.00  0.00    +0.000 C 
ATOM      2  S   UNL     1     -46.779  -8.747 -28.287  0.00  0.00    +0.000 S 
ATOM      3  C   UNL     1     -45.130  -8.615 -29.011  0.00  0.00    +0.000 C 
ATOM      4  C   UNL     1     -45.209  -7.885 -30.299  0.00  0.00    +0.000 C 
ATOM      5  O   UNL     1     -44.854  -8.481 -31.347  0.00  0.00    +0.000 OA
ATOM      6  N   UNL     1     -45.644  -6.525 -30.392  0.00  0.00    +0.000 N 
ATOM      7  C   UNL     1     -46.184  -5.650 -29.385  0.00  0.00    +0.000 A 
ATOM      8  C   UNL     1     -46.545  -5.939 -28.071  0.00  0.00    +0.000 A 
ATOM      9  C   UNL     1     -46.914  -4.710 -27.550  0.00  0.00    +0.000 A 
ATOM     10  C   UNL     1     -47.383  -4.447 -26.161  0.00  0.00    +0.000 C 
ATOM     11  N   UNL     1     -46.785  -3.749 -28.482  0.00  0.00    +0.000 NA
ATOM     12  N   UNL     1     -46.361  -4.325 -29.595  0.00  0.00    +0.000 N 
ATOM     13  H   UNL     1     -45.559  -6.125 -31.286  0.00  0.00    +0.000 HD
ATOM     14  C   UNL     1     -46.082  -3.583 -30.790  0.00  0.00    +0.000 A 
ATOM     15  N   UNL     1     -45.551  -2.325 -30.707  0.00  0.00    +0.000 NA
ATOM     16  C   UNL     1     -45.299  -1.577 -31.827  0.00  0.00    +0.000 A 
ATOM     17  N   UNL     1     -45.588  -2.069 -33.070  0.00  0.00    +0.000 NA
ATOM     18  C   UNL     1     -46.126  -3.309 -33.153  0.00  0.00    +0.000 A 
ATOM     19  N   UNL     1     -46.527  -3.931 -34.269  0.00  0.00    +0.000 N 
ATOM     20  C   UNL     1     -47.040  -5.097 -33.787  0.00  0.00    +0.000 A 
ATOM     21  N   UNL     1     -46.975  -5.208 -32.432  0.00  0.00    +0.000 NA
ATOM     22  C   UNL     1     -46.381  -4.065 -32.065  0.00  0.00    +0.000 A 
ATOM     23  H   UNL     1     -46.465  -3.623 -35.202  0.00  0.00    +0.000 HD
ENDROOT
BRANCH   1  28
ATOM     24  C   UNL     1     -43.219  -7.210 -25.530  0.00  0.00    +0.000 A 
ATOM     25  C   UNL     1     -43.572  -7.501 -24.212  0.00  0.00    +0.000 A 
ATOM     26  C   UNL     1     -44.909  -7.715 -23.873  0.00  0.00    +0.000 A 
ATOM     27  C   UNL     1     -45.917  -7.643 -24.849  0.00  0.00    +0.000 A 
ATOM     28  C   UNL     1     -45.563  -7.351 -26.185  0.00  0.00    +0.000 A 
ATOM     29  C   UNL     1     -44.218  -7.136 -26.510  0.00  0.00    +0.000 A 
BRANCH  24  31
ATOM     30  C   UNL     1     -40.970  -6.364 -24.941  0.00  0.00    +0.000 C 
ATOM     31  O   UNL     1     -41.872  -6.999 -25.838  0.00  0.00    +0.000 OA
ENDBRANCH  24  31
BRANCH  27  32
ATOM     32  O   UNL     1     -47.257  -7.860 -24.505  0.00  0.00    +0.000 OA
ATOM     33  C   UNL     1     -47.755  -7.685 -23.186  0.00  0.00    +0.000 C 
ENDBRANCH  27  32
ENDBRANCH   1  28
TORSDOF 3
ENDMDL
MODEL 3
REMARK VINA RESULT:      -6.2      3.671      6.967
REMARK  Name = ZINC000031806781
REMARK  3 active torsions:
REMARK  status: ('A' for Active; 'I' for Inactive)
REMARK    1  A    between atoms: C_1  and  C_28
REMARK    2  A    between atoms: C_24  and  O_31
REMARK    3  A    between atoms: C_27  and  O_32
REMARK                            x       y       z     vdW  Elec       q    Type
REMARK                         _______ _______ _______ _____ _____    ______ ____
ROOT
ATOM      1  C   UNL     1     -46.404  -5.716 -33.555  0.00  0.00    +0.000 C 
ATOM      2  S   UNL     1     -46.930  -3.980 -33.695  0.00  0.00    +0.000 S 
ATOM      3  C   UNL     1     -45.424  -3.365 -32.913  0.00  0.00    +0.000 C 
ATOM      4  C   UNL     1     -45.647  -3.211 -31.455  0.00  0.00    +0.000 C 
ATOM      5  O   UNL     1     -45.538  -2.064 -30.950  0.00  0.00    +0.000 OA
ATOM      6  N   UNL     1     -45.953  -4.316 -30.599  0.00  0.00    +0.000 N 
ATOM      7  C   UNL     1     -46.223  -5.693 -30.917  0.00  0.00    +0.000 A 
ATOM      8  C   UNL     1     -46.382  -6.292 -32.165  0.00  0.00    +0.000 A 
ATOM      9  C   UNL     1     -46.532  -7.637 -31.871  0.00  0.00    +0.000 A 
ATOM     10  C   UNL     1     -46.729  -8.737 -32.855  0.00  0.00    +0.000 C 
ATOM     11  N   UNL     1     -46.467  -7.836 -30.542  0.00  0.00    +0.000 NA
ATOM     12  N   UNL     1     -46.300  -6.655 -29.969  0.00  0.00    +0.000 N 
ATOM     13  H   UNL     1     -45.982  -4.099 -29.639  0.00  0.00    +0.000 HD
ATOM     14  C   UNL     1     -46.155  -6.500 -28.550  0.00  0.00    +0.000 A 
ATOM     15  N   UNL     1     -45.494  -7.450 -27.821  0.00  0.00    +0.000 NA
ATOM     16  C   UNL     1     -45.362  -7.347 -26.461  0.00  0.00    +0.000 A 
ATOM     17  N   UNL     1     -45.907  -6.288 -25.789  0.00  0.00    +0.000 NA
ATOM     18  C   UNL     1     -46.573  -5.353 -26.507  0.00  0.00    +0.000 A 
ATOM     19  N   UNL     1     -47.218  -4.285 -26.023  0.00  0.00    +0.000 N 
ATOM     20  C   UNL     1     -47.756  -3.733 -27.145  0.00  0.00    +0.000 A 
ATOM     21  N   UNL     1     -47.473  -4.419 -28.286  0.00  0.00    +0.000 NA
ATOM     22  C   UNL     1     -46.713  -5.432 -27.847  0.00  0.00    +0.000 A 
ATOM     23  H   UNL     1     -47.286  -3.977 -25.090  0.00  0.00    +0.000 HD
ENDROOT
BRANCH   1  28
ATOM     24  C   UNL     1     -42.816  -6.179 -34.683  0.00  0.00    +0.000 A 
ATOM     25  C   UNL     1     -42.968  -6.754 -35.946  0.00  0.00    +0.000 A 
ATOM     26  C   UNL     1     -44.243  -7.000 -36.458  0.00  0.00    +0.000 A 
ATOM     27  C   UNL     1     -45.390  -6.672 -35.715  0.00  0.00    +0.000 A 
ATOM     28  C   UNL     1     -45.240  -6.086 -34.438  0.00  0.00    +0.000 A 
ATOM     29  C   UNL     1     -43.956  -5.849 -33.936  0.00  0.00    +0.000 A 
BRANCH  24  31
ATOM     30  C   UNL     1     -40.738  -4.840 -34.614  0.00  0.00    +0.000 C 
ATOM     31  O   UNL     1     -41.527  -5.946 -34.197  0.00  0.00    +0.000 OA
ENDBRANCH  24  31
BRANCH  27  32
ATOM     32  O   UNL     1     -46.667  -6.918 -36.233  0.00  0.00    +0.000 OA
ATOM     33  C   UNL     1     -46.892  -7.322 -37.577  0.00  0.00    +0.000 C 
ENDBRANCH  27  32
ENDBRANCH   1  28
TORSDOF 3
ENDMDL
