MODEL 1
REMARK VINA RESULT:      -7.2      0.000      0.000
REMARK  Name = ZINC000004702219 ZINC04702219 PubChem-1342041
REMARK  3 active torsions:
REMARK  status: ('A' for Active; 'I' for Inactive)
REMARK    1  A    between atoms: C_3  and  C_22
REMARK    2  A    between atoms: C_4  and  C_16
REMARK    3  A    between atoms: N_24  and  C_26
REMARK                            x       y       z     vdW  Elec       q    Type
REMARK                         _______ _______ _______ _____ _____    ______ ____
ROOT
ATOM      1  C   UNL     1     -44.741  -8.072 -34.008  0.00  0.00    +0.000 C 
ATOM      2  C   UNL     1     -44.896  -6.905 -33.091  0.00  0.00    +0.000 C 
ATOM      3  C   UNL     1     -45.531  -6.982 -31.897  0.00  0.00    +0.000 C 
ATOM      4  C   UNL     1     -45.526  -5.772 -30.977  0.00  0.00    +0.000 C 
ATOM      5  C   UNL     1     -45.280  -4.452 -31.673  0.00  0.00    +0.000 C 
ATOM      6  C   UNL     1     -44.647  -4.426 -32.856  0.00  0.00    +0.000 C 
ATOM      7  N   UNL     1     -44.385  -5.648 -33.547  0.00  0.00    +0.000 N 
ATOM      8  C   UNL     1     -44.328  -3.127 -33.545  0.00  0.00    +0.000 C 
ATOM      9  C   UNL     1     -44.053  -1.990 -32.558  0.00  0.00    +0.000 C 
ATOM     10  C   UNL     1     -45.190  -1.860 -31.540  0.00  0.00    +0.000 C 
ATOM     11  C   UNL     1     -45.637  -3.185 -30.992  0.00  0.00    +0.000 C 
ATOM     12  O   UNL     1     -46.341  -3.207 -29.948  0.00  0.00    +0.000 OA
ATOM     13  C   UNL     1     -43.949  -0.693 -33.331  0.00  0.00    +0.000 C 
ATOM     14  C   UNL     1     -42.735  -2.224 -31.838  0.00  0.00    +0.000 C 
ATOM     15  H   UNL     1     -43.835  -5.625 -34.363  0.00  0.00    +0.000 HD
ENDROOT
BRANCH   4  16
ATOM     16  C   UNL     1     -44.558  -5.961 -29.843  0.00  0.00    +0.000 A 
ATOM     17  C   UNL     1     -44.997  -6.293 -28.555  0.00  0.00    +0.000 A 
ATOM     18  C   UNL     1     -44.072  -6.467 -27.526  0.00  0.00    +0.000 A 
ATOM     19  C   UNL     1     -42.711  -6.307 -27.799  0.00  0.00    +0.000 A 
ATOM     20  N   UNL     1     -42.301  -5.986 -29.055  0.00  0.00    +0.000 NA
ATOM     21  C   UNL     1     -43.186  -5.813 -30.072  0.00  0.00    +0.000 A 
ENDBRANCH   4  16
BRANCH   3  22
ATOM     22  C   UNL     1     -46.192  -8.218 -31.388  0.00  0.00    +0.000 C 
ATOM     23  O   UNL     1     -47.410  -8.445 -31.617  0.00  0.00    +0.000 OA
ATOM     24  N   UNL     1     -45.420  -9.154 -30.620  0.00  0.00    +0.000 N 
ATOM     25  H   UNL     1     -44.484  -8.907 -30.442  0.00  0.00    +0.000 HD
BRANCH  24  26
ATOM     26  C   UNL     1     -45.863 -10.409 -30.088  0.00  0.00    +0.000 A 
ATOM     27  C   UNL     1     -45.751 -11.554 -30.886  0.00  0.00    +0.000 A 
ATOM     28  C   UNL     1     -46.175 -12.796 -30.404  0.00  0.00    +0.000 A 
ATOM     29  C   UNL     1     -46.715 -12.901 -29.120  0.00  0.00    +0.000 A 
ATOM     30  C   UNL     1     -46.831 -11.763 -28.317  0.00  0.00    +0.000 A 
ATOM     31  C   UNL     1     -46.406 -10.521 -28.799  0.00  0.00    +0.000 A 
ATOM     32  F   UNL     1     -47.354 -11.863 -27.072  0.00  0.00    +0.000 F 
ENDBRANCH  24  26
ENDBRANCH   3  22
TORSDOF 3
ENDMDL
MODEL 2
REMARK VINA RESULT:      -7.0      3.026      7.746
REMARK  Name = ZINC000004702219 ZINC04702219 PubChem-1342041
REMARK  3 active torsions:
REMARK  status: ('A' for Active; 'I' for Inactive)
REMARK    1  A    between atoms: C_3  and  C_22
REMARK    2  A    between atoms: C_4  and  C_16
REMARK    3  A    between atoms: N_24  and  C_26
REMARK                            x       y       z     vdW  Elec       q    Type
REMARK                         _______ _______ _______ _____ _____    ______ ____
ROOT
ATOM      1  C   UNL     1     -46.787  -5.036 -27.973  0.00  0.00    +0.000 C 
ATOM      2  C   UNL     1     -46.514  -6.311 -28.698  0.00  0.00    +0.000 C 
ATOM      3  C   UNL     1     -46.187  -6.361 -30.011  0.00  0.00    +0.000 C 
ATOM      4  C   UNL     1     -45.802  -7.696 -30.628  0.00  0.00    +0.000 C 
ATOM      5  C   UNL     1     -46.317  -8.907 -29.881  0.00  0.00    +0.000 C 
ATOM      6  C   UNL     1     -46.629  -8.809 -28.580  0.00  0.00    +0.000 C 
ATOM      7  N   UNL     1     -46.666  -7.525 -27.954  0.00  0.00    +0.000 N 
ATOM      8  C   UNL     1     -47.081 -10.007 -27.791  0.00  0.00    +0.000 C 
ATOM      9  C   UNL     1     -46.441 -11.309 -28.280  0.00  0.00    +0.000 C 
ATOM     10  C   UNL     1     -46.635 -11.483 -29.789  0.00  0.00    +0.000 C 
ATOM     11  C   UNL     1     -46.364 -10.223 -30.561  0.00  0.00    +0.000 C 
ATOM     12  O   UNL     1     -46.196 -10.296 -31.807  0.00  0.00    +0.000 OA
ATOM     13  C   UNL     1     -47.106 -12.470 -27.573  0.00  0.00    +0.000 C 
ATOM     14  C   UNL     1     -44.959 -11.328 -27.941  0.00  0.00    +0.000 C 
ATOM     15  H   UNL     1     -46.799  -7.474 -26.980  0.00  0.00    +0.000 HD
ENDROOT
BRANCH   4  16
ATOM     16  C   UNL     1     -44.316  -7.789 -30.828  0.00  0.00    +0.000 A 
ATOM     17  C   UNL     1     -43.441  -7.937 -29.743  0.00  0.00    +0.000 A 
ATOM     18  C   UNL     1     -42.067  -8.026 -29.964  0.00  0.00    +0.000 A 
ATOM     19  C   UNL     1     -41.581  -7.967 -31.273  0.00  0.00    +0.000 A 
ATOM     20  N   UNL     1     -42.444  -7.826 -32.314  0.00  0.00    +0.000 NA
ATOM     21  C   UNL     1     -43.787  -7.738 -32.121  0.00  0.00    +0.000 A 
ENDBRANCH   4  16
BRANCH   3  22
ATOM     22  C   UNL     1     -46.116  -5.161 -30.893  0.00  0.00    +0.000 C 
ATOM     23  O   UNL     1     -47.116  -4.785 -31.561  0.00  0.00    +0.000 OA
ATOM     24  N   UNL     1     -44.880  -4.434 -30.980  0.00  0.00    +0.000 N 
ATOM     25  H   UNL     1     -44.123  -4.795 -30.465  0.00  0.00    +0.000 HD
BRANCH  24  26
ATOM     26  C   UNL     1     -44.631  -3.239 -31.732  0.00  0.00    +0.000 A 
ATOM     27  C   UNL     1     -44.092  -3.356 -33.019  0.00  0.00    +0.000 A 
ATOM     28  C   UNL     1     -43.831  -2.215 -33.783  0.00  0.00    +0.000 A 
ATOM     29  C   UNL     1     -44.106  -0.948 -33.263  0.00  0.00    +0.000 A 
ATOM     30  C   UNL     1     -44.643  -0.822 -31.978  0.00  0.00    +0.000 A 
ATOM     31  C   UNL     1     -44.904  -1.964 -31.216  0.00  0.00    +0.000 A 
ATOM     32  F   UNL     1     -44.909   0.406 -31.473  0.00  0.00    +0.000 F 
ENDBRANCH  24  26
ENDBRANCH   3  22
TORSDOF 3
ENDMDL
MODEL 3
REMARK VINA RESULT:      -7.0      9.008     14.471
REMARK  Name = ZINC000004702219 ZINC04702219 PubChem-1342041
REMARK  3 active torsions:
REMARK  status: ('A' for Active; 'I' for Inactive)
REMARK    1  A    between atoms: C_3  and  C_22
REMARK    2  A    between atoms: C_4  and  C_16
REMARK    3  A    between atoms: N_24  and  C_26
REMARK                            x       y       z     vdW  Elec       q    Type
REMARK                         _______ _______ _______ _____ _____    ______ ____
ROOT
ATOM      1  C   UNL     1     -42.757 -14.283 -22.845  0.00  0.00    +0.000 C 
ATOM      2  C   UNL     1     -43.464 -15.492 -22.328  0.00  0.00    +0.000 C 
ATOM      3  C   UNL     1     -44.664 -15.906 -22.800  0.00  0.00    +0.000 C 
ATOM      4  C   UNL     1     -45.243 -17.219 -22.299  0.00  0.00    +0.000 C 
ATOM      5  C   UNL     1     -44.704 -17.675 -20.960  0.00  0.00    +0.000 C 
ATOM      6  C   UNL     1     -43.510 -17.237 -20.534  0.00  0.00    +0.000 C 
ATOM      7  N   UNL     1     -42.843 -16.193 -21.245  0.00  0.00    +0.000 N 
ATOM      8  C   UNL     1     -42.915 -17.720 -19.240  0.00  0.00    +0.000 C 
ATOM      9  C   UNL     1     -43.308 -19.163 -18.915  0.00  0.00    +0.000 C 
ATOM     10  C   UNL     1     -44.827 -19.346 -18.976  0.00  0.00    +0.000 C 
ATOM     11  C   UNL     1     -45.445 -18.694 -20.180  0.00  0.00    +0.000 C 
ATOM     12  O   UNL     1     -46.619 -19.011 -20.510  0.00  0.00    +0.000 OA
ATOM     13  C   UNL     1     -42.840 -19.488 -17.512  0.00  0.00    +0.000 C 
ATOM     14  C   UNL     1     -42.630 -20.124 -19.879  0.00  0.00    +0.000 C 
ATOM     15  H   UNL     1     -41.926 -15.948 -20.982  0.00  0.00    +0.000 HD
ENDROOT
BRANCH   4  16
ATOM     16  C   UNL     1     -45.091 -18.303 -23.328  0.00  0.00    +0.000 A 
ATOM     17  C   UNL     1     -43.953 -19.119 -23.368  0.00  0.00    +0.000 A 
ATOM     18  C   UNL     1     -43.846 -20.120 -24.333  0.00  0.00    +0.000 A 
ATOM     19  C   UNL     1     -44.884 -20.295 -25.251  0.00  0.00    +0.000 A 
ATOM     20  N   UNL     1     -45.984 -19.497 -25.197  0.00  0.00    +0.000 NA
ATOM     21  C   UNL     1     -46.108 -18.516 -24.264  0.00  0.00    +0.000 A 
ENDBRANCH   4  16
BRANCH   3  22
ATOM     22  C   UNL     1     -45.439 -15.179 -23.846  0.00  0.00    +0.000 C 
ATOM     23  O   UNL     1     -46.636 -14.839 -23.649  0.00  0.00    +0.000 OA
ATOM     24  N   UNL     1     -44.802 -14.873 -25.096  0.00  0.00    +0.000 N 
ATOM     25  H   UNL     1     -43.879 -15.195 -25.208  0.00  0.00    +0.000 HD
BRANCH  24  26
ATOM     26  C   UNL     1     -45.364 -14.147 -26.198  0.00  0.00    +0.000 A 
ATOM     27  C   UNL     1     -45.117 -14.604 -27.497  0.00  0.00    +0.000 A 
ATOM     28  C   UNL     1     -45.644 -13.922 -28.599  0.00  0.00    +0.000 A 
ATOM     29  C   UNL     1     -46.421 -12.777 -28.405  0.00  0.00    +0.000 A 
ATOM     30  C   UNL     1     -46.671 -12.314 -27.111  0.00  0.00    +0.000 A 
ATOM     31  C   UNL     1     -46.144 -12.996 -26.011  0.00  0.00    +0.000 A 
ATOM     32  F   UNL     1     -47.424 -11.203 -26.923  0.00  0.00    +0.000 F 
ENDBRANCH  24  26
ENDBRANCH   3  22
TORSDOF 3
ENDMDL
