MODEL 1
REMARK VINA RESULT:      -7.6      0.000      0.000
REMARK  Name = ZINC000031809026
REMARK  1 active torsions:
REMARK  status: ('A' for Active; 'I' for Inactive)
REMARK    1  A    between atoms: C_7  and  C_24
REMARK                            x       y       z     vdW  Elec       q    Type
REMARK                         _______ _______ _______ _____ _____    ______ ____
ROOT
ATOM      1  C   UNL     1     -47.557  -3.739 -33.707  0.00  0.00    +0.000 C 
ATOM      2  C   UNL     1     -46.922  -4.868 -34.443  0.00  0.00    +0.000 A 
ATOM      3  N   UNL     1     -47.452  -5.380 -35.567  0.00  0.00    +0.000 NA
ATOM      4  N   UNL     1     -46.697  -6.392 -35.947  0.00  0.00    +0.000 N 
ATOM      5  C   UNL     1     -45.676  -6.555 -35.075  0.00  0.00    +0.000 A 
ATOM      6  C   UNL     1     -45.755  -5.555 -34.094  0.00  0.00    +0.000 A 
ATOM      7  C   UNL     1     -44.888  -5.271 -32.874  0.00  0.00    +0.000 C 
ATOM      8  S   UNL     1     -43.206  -5.962 -32.925  0.00  0.00    +0.000 S 
ATOM      9  C   UNL     1     -43.788  -7.668 -32.881  0.00  0.00    +0.000 C 
ATOM     10  C   UNL     1     -43.809  -8.146 -34.282  0.00  0.00    +0.000 C 
ATOM     11  O   UNL     1     -43.020  -9.061 -34.625  0.00  0.00    +0.000 OA
ATOM     12  N   UNL     1     -44.662  -7.555 -35.263  0.00  0.00    +0.000 N 
ATOM     13  H   UNL     1     -44.540  -7.874 -36.186  0.00  0.00    +0.000 HD
ATOM     14  C   UNL     1     -46.984  -7.170 -37.118  0.00  0.00    +0.000 A 
ATOM     15  N   UNL     1     -47.393  -6.549 -38.266  0.00  0.00    +0.000 NA
ATOM     16  C   UNL     1     -47.728  -7.259 -39.388  0.00  0.00    +0.000 A 
ATOM     17  N   UNL     1     -47.668  -8.625 -39.387  0.00  0.00    +0.000 NA
ATOM     18  C   UNL     1     -47.257  -9.243 -38.254  0.00  0.00    +0.000 A 
ATOM     19  N   UNL     1     -47.213 -10.563 -38.038  0.00  0.00    +0.000 N 
ATOM     20  C   UNL     1     -46.828 -10.635 -36.735  0.00  0.00    +0.000 A 
ATOM     21  N   UNL     1     -46.653  -9.423 -36.143  0.00  0.00    +0.000 NA
ATOM     22  C   UNL     1     -46.924  -8.563 -37.135  0.00  0.00    +0.000 A 
ATOM     23  H   UNL     1     -47.409 -11.297 -38.664  0.00  0.00    +0.000 HD
ENDROOT
BRANCH   7  24
ATOM     24  C   UNL     1     -44.770  -3.800 -32.560  0.00  0.00    +0.000 A 
ATOM     25  C   UNL     1     -44.097  -2.986 -33.485  0.00  0.00    +0.000 A 
ATOM     26  C   UNL     1     -43.970  -1.614 -33.261  0.00  0.00    +0.000 A 
ATOM     27  C   UNL     1     -44.514  -1.036 -32.113  0.00  0.00    +0.000 A 
ATOM     28  F   UNL     1     -44.383   0.293 -31.895  0.00  0.00    +0.000 F 
ATOM     29  C   UNL     1     -45.181  -1.835 -31.184  0.00  0.00    +0.000 A 
ATOM     30  C   UNL     1     -45.316  -3.210 -31.393  0.00  0.00    +0.000 A 
ATOM     31 CL   UNL     1     -46.168  -4.138 -30.167  0.00  0.00    +0.000 Cl
ENDBRANCH   7  24
TORSDOF 1
ENDMDL
MODEL 2
REMARK VINA RESULT:      -6.7      5.599      8.031
REMARK  Name = ZINC000031809026
REMARK  1 active torsions:
REMARK  status: ('A' for Active; 'I' for Inactive)
REMARK    1  A    between atoms: C_7  and  C_24
REMARK                            x       y       z     vdW  Elec       q    Type
REMARK                         _______ _______ _______ _____ _____    ______ ____
ROOT
ATOM      1  C   UNL     1     -43.191  -6.873 -28.029  0.00  0.00    +0.000 C 
ATOM      2  C   UNL     1     -43.512  -6.114 -29.270  0.00  0.00    +0.000 A 
ATOM      3  N   UNL     1     -42.585  -5.409 -29.940  0.00  0.00    +0.000 NA
ATOM      4  N   UNL     1     -43.183  -4.812 -30.953  0.00  0.00    +0.000 N 
ATOM      5  C   UNL     1     -44.501  -5.115 -30.950  0.00  0.00    +0.000 A 
ATOM      6  C   UNL     1     -44.760  -5.998 -29.891  0.00  0.00    +0.000 A 
ATOM      7  C   UNL     1     -46.054  -6.644 -29.413  0.00  0.00    +0.000 C 
ATOM      8  S   UNL     1     -47.389  -6.739 -30.644  0.00  0.00    +0.000 S 
ATOM      9  C   UNL     1     -47.590  -4.949 -30.727  0.00  0.00    +0.000 C 
ATOM     10  C   UNL     1     -46.814  -4.488 -31.900  0.00  0.00    +0.000 C 
ATOM     11  O   UNL     1     -47.427  -3.995 -32.880  0.00  0.00    +0.000 OA
ATOM     12  N   UNL     1     -45.396  -4.643 -31.970  0.00  0.00    +0.000 N 
ATOM     13  H   UNL     1     -44.979  -4.394 -32.826  0.00  0.00    +0.000 HD
ATOM     14  C   UNL     1     -42.477  -3.970 -31.877  0.00  0.00    +0.000 A 
ATOM     15  N   UNL     1     -41.240  -4.340 -32.329  0.00  0.00    +0.000 NA
ATOM     16  C   UNL     1     -40.513  -3.538 -33.168  0.00  0.00    +0.000 A 
ATOM     17  N   UNL     1     -41.007  -2.330 -33.574  0.00  0.00    +0.000 NA
ATOM     18  C   UNL     1     -42.234  -1.964 -33.133  0.00  0.00    +0.000 A 
ATOM     19  N   UNL     1     -42.843  -0.793 -33.355  0.00  0.00    +0.000 N 
ATOM     20  C   UNL     1     -43.984  -0.911 -32.622  0.00  0.00    +0.000 A 
ATOM     21  N   UNL     1     -44.089  -2.090 -31.951  0.00  0.00    +0.000 NA
ATOM     22  C   UNL     1     -42.969  -2.737 -32.303  0.00  0.00    +0.000 A 
ATOM     23  H   UNL     1     -42.543  -0.037 -33.909  0.00  0.00    +0.000 HD
ENDROOT
BRANCH   7  24
ATOM     24  C   UNL     1     -45.853  -8.027 -28.847  0.00  0.00    +0.000 A 
ATOM     25  C   UNL     1     -45.447  -9.042 -29.729  0.00  0.00    +0.000 A 
ATOM     26  C   UNL     1     -45.225 -10.339 -29.264  0.00  0.00    +0.000 A 
ATOM     27  C   UNL     1     -45.404 -10.641 -27.913  0.00  0.00    +0.000 A 
ATOM     28  F   UNL     1     -45.197 -11.902 -27.466  0.00  0.00    +0.000 F 
ATOM     29  C   UNL     1     -45.813  -9.644 -27.027  0.00  0.00    +0.000 A 
ATOM     30  C   UNL     1     -46.039  -8.340 -27.477  0.00  0.00    +0.000 A 
ATOM     31 CL   UNL     1     -46.555  -7.150 -26.291  0.00  0.00    +0.000 Cl
ENDBRANCH   7  24
TORSDOF 1
ENDMDL
MODEL 3
REMARK VINA RESULT:      -6.7      5.118      6.893
REMARK  Name = ZINC000031809026
REMARK  1 active torsions:
REMARK  status: ('A' for Active; 'I' for Inactive)
REMARK    1  A    between atoms: C_7  and  C_24
REMARK                            x       y       z     vdW  Elec       q    Type
REMARK                         _______ _______ _______ _____ _____    ______ ____
ROOT
ATOM      1  C   UNL     1     -44.289  -6.298 -30.293  0.00  0.00    +0.000 C 
ATOM      2  C   UNL     1     -44.868  -7.666 -30.404  0.00  0.00    +0.000 A 
ATOM      3  N   UNL     1     -45.193  -8.398 -29.324  0.00  0.00    +0.000 NA
ATOM      4  N   UNL     1     -45.625  -9.571 -29.745  0.00  0.00    +0.000 N 
ATOM      5  C   UNL     1     -45.579  -9.619 -31.096  0.00  0.00    +0.000 A 
ATOM      6  C   UNL     1     -45.128  -8.381 -31.578  0.00  0.00    +0.000 A 
ATOM      7  C   UNL     1     -44.874  -7.885 -32.995  0.00  0.00    +0.000 C 
ATOM      8  S   UNL     1     -45.742  -8.788 -34.314  0.00  0.00    +0.000 S 
ATOM      9  C   UNL     1     -44.825 -10.314 -34.023  0.00  0.00    +0.000 C 
ATOM     10  C   UNL     1     -45.676 -11.162 -33.158  0.00  0.00    +0.000 C 
ATOM     11  O   UNL     1     -46.133 -12.237 -33.620  0.00  0.00    +0.000 OA
ATOM     12  N   UNL     1     -46.037 -10.763 -31.835  0.00  0.00    +0.000 N 
ATOM     13  H   UNL     1     -46.681 -11.344 -31.372  0.00  0.00    +0.000 HD
ATOM     14  C   UNL     1     -46.054 -10.602 -28.843  0.00  0.00    +0.000 A 
ATOM     15  N   UNL     1     -46.819 -10.282 -27.755  0.00  0.00    +0.000 NA
ATOM     16  C   UNL     1     -47.202 -11.229 -26.843  0.00  0.00    +0.000 A 
ATOM     17  N   UNL     1     -46.819 -12.532 -26.994  0.00  0.00    +0.000 NA
ATOM     18  C   UNL     1     -46.067 -12.854 -28.073  0.00  0.00    +0.000 A 
ATOM     19  N   UNL     1     -45.533 -14.051 -28.344  0.00  0.00    +0.000 N 
ATOM     20  C   UNL     1     -44.810 -13.802 -29.470  0.00  0.00    +0.000 A 
ATOM     21  N   UNL     1     -44.863 -12.508 -29.886  0.00  0.00    +0.000 NA
ATOM     22  C   UNL     1     -45.675 -11.936 -28.985  0.00  0.00    +0.000 A 
ATOM     23  H   UNL     1     -45.638 -14.898 -27.853  0.00  0.00    +0.000 HD
ENDROOT
BRANCH   7  24
ATOM     24  C   UNL     1     -45.172  -6.417 -33.173  0.00  0.00    +0.000 A 
ATOM     25  C   UNL     1     -46.516  -6.013 -33.134  0.00  0.00    +0.000 A 
ATOM     26  C   UNL     1     -46.856  -4.667 -33.273  0.00  0.00    +0.000 A 
ATOM     27  C   UNL     1     -45.860  -3.706 -33.451  0.00  0.00    +0.000 A 
ATOM     28  F   UNL     1     -46.193  -2.401 -33.594  0.00  0.00    +0.000 F 
ATOM     29  C   UNL     1     -44.521  -4.094 -33.496  0.00  0.00    +0.000 A 
ATOM     30  C   UNL     1     -44.164  -5.438 -33.359  0.00  0.00    +0.000 A 
ATOM     31 CL   UNL     1     -42.454  -5.835 -33.433  0.00  0.00    +0.000 Cl
ENDBRANCH   7  24
TORSDOF 1
ENDMDL
