MODEL 1
REMARK VINA RESULT:      -6.5      0.000      0.000
REMARK  Name = ZINC000001703511 PubChem-92161731
REMARK  9 active torsions:
REMARK  status: ('A' for Active; 'I' for Inactive)
REMARK    1  A    between atoms: N_17  and  C_20
REMARK    2  A    between atoms: C_20  and  C_21
REMARK    3  A    between atoms: C_21  and  O_22
REMARK    4  A    between atoms: C_21  and  C_24
REMARK    5  A    between atoms: C_24  and  O_25
REMARK    6  A    between atoms: C_24  and  C_27
REMARK    7  A    between atoms: C_27  and  O_28
REMARK    8  A    between atoms: C_27  and  C_30
REMARK    9  A    between atoms: C_30  and  O_31
REMARK                            x       y       z     vdW  Elec       q    Type
REMARK                         _______ _______ _______ _____ _____    ______ ____
ROOT
ATOM      1  C   UNL     1     -46.031  -9.921 -36.230  0.00  0.00    +0.000 C 
ATOM      2  C   UNL     1     -46.187  -8.725 -35.352  0.00  0.00    +0.000 A 
ATOM      3  C   UNL     1     -46.067  -7.420 -35.861  0.00  0.00    +0.000 A 
ATOM      4  C   UNL     1     -46.219  -6.326 -35.007  0.00  0.00    +0.000 A 
ATOM      5  C   UNL     1     -46.491  -6.504 -33.639  0.00  0.00    +0.000 A 
ATOM      6  C   UNL     1     -46.612  -7.827 -33.139  0.00  0.00    +0.000 A 
ATOM      7  C   UNL     1     -46.459  -8.919 -33.996  0.00  0.00    +0.000 A 
ATOM      8  C   UNL     1     -46.883  -8.054 -31.793  0.00  0.00    +0.000 A 
ATOM      9  C   UNL     1     -47.040  -6.974 -30.933  0.00  0.00    +0.000 A 
ATOM     10  C   UNL     1     -47.316  -7.114 -29.571  0.00  0.00    +0.000 A 
ATOM     11  O   UNL     1     -47.437  -8.254 -29.050  0.00  0.00    +0.000 OA
ATOM     12  N   UNL     1     -47.457  -6.004 -28.799  0.00  0.00    +0.000 N 
ATOM     13  C   UNL     1     -47.338  -4.747 -29.309  0.00  0.00    +0.000 A 
ATOM     14  O   UNL     1     -47.478  -3.752 -28.550  0.00  0.00    +0.000 OA
ATOM     15  N   UNL     1     -47.069  -4.555 -30.627  0.00  0.00    +0.000 NA
ATOM     16  C   UNL     1     -46.911  -5.607 -31.474  0.00  0.00    +0.000 A 
ATOM     17  N   UNL     1     -46.638  -5.421 -32.801  0.00  0.00    +0.000 N 
ATOM     18  C   UNL     1     -45.778  -7.168 -37.302  0.00  0.00    +0.000 C 
ATOM     19  H   UNL     1     -47.651  -6.113 -27.840  0.00  0.00    +0.000 HD
ENDROOT
BRANCH  17  20
ATOM     20  C   UNL     1     -46.496  -4.056 -33.316  0.00  0.00    +0.000 C 
BRANCH  20  21
ATOM     21  C   UNL     1     -45.036  -3.616 -33.280  0.00  0.00    +0.000 C 
BRANCH  21  22
ATOM     22  O   UNL     1     -44.398  -4.228 -32.200  0.00  0.00    +0.000 OA
ATOM     23  H   UNL     1     -44.515  -5.189 -32.258  0.00  0.00    +0.000 HD
ENDBRANCH  21  22
BRANCH  21  24
ATOM     24  C   UNL     1     -44.939  -2.090 -33.165  0.00  0.00    +0.000 C 
BRANCH  24  25
ATOM     25  O   UNL     1     -44.337  -1.562 -34.309  0.00  0.00    +0.000 OA
ATOM     26  H   UNL     1     -43.373  -1.573 -34.203  0.00  0.00    +0.000 HD
ENDBRANCH  24  25
BRANCH  24  27
ATOM     27  C   UNL     1     -44.153  -1.624 -31.937  0.00  0.00    +0.000 C 
BRANCH  27  28
ATOM     28  O   UNL     1     -44.781  -0.539 -31.319  0.00  0.00    +0.000 OA
ATOM     29  H   UNL     1     -44.574  -0.541 -30.371  0.00  0.00    +0.000 HD
ENDBRANCH  27  28
BRANCH  27  30
ATOM     30  C   UNL     1     -42.717  -1.277 -32.291  0.00  0.00    +0.000 C 
BRANCH  30  31
ATOM     31  O   UNL     1     -41.884  -2.360 -32.005  0.00  0.00    +0.000 OA
ATOM     32  H   UNL     1     -42.369  -3.010 -31.473  0.00  0.00    +0.000 HD
ENDBRANCH  30  31
ENDBRANCH  27  30
ENDBRANCH  24  27
ENDBRANCH  21  24
ENDBRANCH  20  21
ENDBRANCH  17  20
TORSDOF 9
ENDMDL
MODEL 2
REMARK VINA RESULT:      -6.5     13.823     17.876
REMARK  Name = ZINC000001703511 PubChem-92161731
REMARK  9 active torsions:
REMARK  status: ('A' for Active; 'I' for Inactive)
REMARK    1  A    between atoms: N_17  and  C_20
REMARK    2  A    between atoms: C_20  and  C_21
REMARK    3  A    between atoms: C_21  and  O_22
REMARK    4  A    between atoms: C_21  and  C_24
REMARK    5  A    between atoms: C_24  and  O_25
REMARK    6  A    between atoms: C_24  and  C_27
REMARK    7  A    between atoms: C_27  and  O_28
REMARK    8  A    between atoms: C_27  and  C_30
REMARK    9  A    between atoms: C_30  and  O_31
REMARK                            x       y       z     vdW  Elec       q    Type
REMARK                         _______ _______ _______ _____ _____    ______ ____
ROOT
ATOM      1  C   UNL     1     -46.664 -12.347 -19.367  0.00  0.00    +0.000 C 
ATOM      2  C   UNL     1     -46.373 -13.709 -19.902  0.00  0.00    +0.000 A 
ATOM      3  C   UNL     1     -46.233 -14.818 -19.050  0.00  0.00    +0.000 A 
ATOM      4  C   UNL     1     -45.961 -16.077 -19.589  0.00  0.00    +0.000 A 
ATOM      5  C   UNL     1     -45.821 -16.259 -20.976  0.00  0.00    +0.000 A 
ATOM      6  C   UNL     1     -45.967 -15.130 -21.825  0.00  0.00    +0.000 A 
ATOM      7  C   UNL     1     -46.239 -13.873 -21.282  0.00  0.00    +0.000 A 
ATOM      8  C   UNL     1     -45.841 -15.260 -23.205  0.00  0.00    +0.000 A 
ATOM      9  C   UNL     1     -45.573 -16.508 -23.755  0.00  0.00    +0.000 A 
ATOM     10  C   UNL     1     -45.434 -16.726 -25.128  0.00  0.00    +0.000 A 
ATOM     11  O   UNL     1     -45.547 -15.776 -25.947  0.00  0.00    +0.000 OA
ATOM     12  N   UNL     1     -45.173 -17.979 -25.583  0.00  0.00    +0.000 N 
ATOM     13  C   UNL     1     -45.042 -19.043 -24.744  0.00  0.00    +0.000 A 
ATOM     14  O   UNL     1     -44.801 -20.184 -25.218  0.00  0.00    +0.000 OA
ATOM     15  N   UNL     1     -45.167 -18.885 -23.400  0.00  0.00    +0.000 NA
ATOM     16  C   UNL     1     -45.425 -17.667 -22.855  0.00  0.00    +0.000 A 
ATOM     17  N   UNL     1     -45.550 -17.502 -21.502  0.00  0.00    +0.000 N 
ATOM     18  C   UNL     1     -46.369 -14.688 -17.571  0.00  0.00    +0.000 C 
ATOM     19  H   UNL     1     -45.077 -18.122 -26.553  0.00  0.00    +0.000 HD
ENDROOT
BRANCH  17  20
ATOM     20  C   UNL     1     -45.384 -18.663 -20.623  0.00  0.00    +0.000 C 
BRANCH  20  21
ATOM     21  C   UNL     1     -43.907 -18.917 -20.341  0.00  0.00    +0.000 C 
BRANCH  21  22
ATOM     22  O   UNL     1     -43.486 -20.035 -21.063  0.00  0.00    +0.000 OA
ATOM     23  H   UNL     1     -42.928 -20.593 -20.499  0.00  0.00    +0.000 HD
ENDBRANCH  21  22
BRANCH  21  24
ATOM     24  C   UNL     1     -43.677 -19.131 -18.840  0.00  0.00    +0.000 C 
BRANCH  24  25
ATOM     25  O   UNL     1     -43.136 -17.976 -18.270  0.00  0.00    +0.000 OA
ATOM     26  H   UNL     1     -42.981 -18.123 -17.324  0.00  0.00    +0.000 HD
ENDBRANCH  24  25
BRANCH  24  27
ATOM     27  C   UNL     1     -42.751 -20.311 -18.531  0.00  0.00    +0.000 C 
BRANCH  27  28
ATOM     28  O   UNL     1     -43.485 -21.461 -18.229  0.00  0.00    +0.000 OA
ATOM     29  H   UNL     1     -44.432 -21.281 -18.344  0.00  0.00    +0.000 HD
ENDBRANCH  27  28
BRANCH  27  30
ATOM     30  C   UNL     1     -41.786 -19.983 -17.404  0.00  0.00    +0.000 C 
BRANCH  30  31
ATOM     31  O   UNL     1     -42.498 -19.667 -16.247  0.00  0.00    +0.000 OA
ATOM     32  H   UNL     1     -42.602 -20.463 -15.703  0.00  0.00    +0.000 HD
ENDBRANCH  30  31
ENDBRANCH  27  30
ENDBRANCH  24  27
ENDBRANCH  21  24
ENDBRANCH  20  21
ENDBRANCH  17  20
TORSDOF 9
ENDMDL
MODEL 3
REMARK VINA RESULT:      -6.4      2.428      5.846
REMARK  Name = ZINC000001703511 PubChem-92161731
REMARK  9 active torsions:
REMARK  status: ('A' for Active; 'I' for Inactive)
REMARK    1  A    between atoms: N_17  and  C_20
REMARK    2  A    between atoms: C_20  and  C_21
REMARK    3  A    between atoms: C_21  and  O_22
REMARK    4  A    between atoms: C_21  and  C_24
REMARK    5  A    between atoms: C_24  and  O_25
REMARK    6  A    between atoms: C_24  and  C_27
REMARK    7  A    between atoms: C_27  and  O_28
REMARK    8  A    between atoms: C_27  and  C_30
REMARK    9  A    between atoms: C_30  and  O_31
REMARK                            x       y       z     vdW  Elec       q    Type
REMARK                         _______ _______ _______ _____ _____    ______ ____
ROOT
ATOM      1  C   UNL     1     -46.931  -4.890 -24.220  0.00  0.00    +0.000 C 
ATOM      2  C   UNL     1     -46.949  -4.929 -25.711  0.00  0.00    +0.000 A 
ATOM      3  C   UNL     1     -47.268  -3.790 -26.471  0.00  0.00    +0.000 A 
ATOM      4  C   UNL     1     -47.274  -3.866 -27.866  0.00  0.00    +0.000 A 
ATOM      5  C   UNL     1     -46.966  -5.067 -28.529  0.00  0.00    +0.000 A 
ATOM      6  C   UNL     1     -46.643  -6.208 -27.749  0.00  0.00    +0.000 A 
ATOM      7  C   UNL     1     -46.638  -6.129 -26.355  0.00  0.00    +0.000 A 
ATOM      8  C   UNL     1     -46.328  -7.418 -28.360  0.00  0.00    +0.000 A 
ATOM      9  C   UNL     1     -46.327  -7.507 -29.747  0.00  0.00    +0.000 A 
ATOM     10  C   UNL     1     -46.020  -8.681 -30.439  0.00  0.00    +0.000 A 
ATOM     11  O   UNL     1     -45.725  -9.737 -29.819  0.00  0.00    +0.000 OA
ATOM     12  N   UNL     1     -46.041  -8.682 -31.797  0.00  0.00    +0.000 N 
ATOM     13  C   UNL     1     -46.351  -7.569 -32.519  0.00  0.00    +0.000 A 
ATOM     14  O   UNL     1     -46.355  -7.623 -33.776  0.00  0.00    +0.000 OA
ATOM     15  N   UNL     1     -46.659  -6.402 -31.894  0.00  0.00    +0.000 NA
ATOM     16  C   UNL     1     -46.665  -6.308 -30.538  0.00  0.00    +0.000 A 
ATOM     17  N   UNL     1     -46.975  -5.137 -29.904  0.00  0.00    +0.000 N 
ATOM     18  C   UNL     1     -47.604  -2.490 -25.824  0.00  0.00    +0.000 C 
ATOM     19  H   UNL     1     -45.823  -9.514 -32.276  0.00  0.00    +0.000 HD
ENDROOT
BRANCH  17  20
ATOM     20  C   UNL     1     -47.325  -3.961 -30.707  0.00  0.00    +0.000 C 
BRANCH  20  21
ATOM     21  C   UNL     1     -46.068  -3.274 -31.232  0.00  0.00    +0.000 C 
BRANCH  21  22
ATOM     22  O   UNL     1     -45.830  -2.118 -30.486  0.00  0.00    +0.000 OA
ATOM     23  H   UNL     1     -46.008  -1.338 -31.034  0.00  0.00    +0.000 HD
ENDBRANCH  21  22
BRANCH  21  24
ATOM     24  C   UNL     1     -46.226  -2.931 -32.718  0.00  0.00    +0.000 C 
BRANCH  24  25
ATOM     25  O   UNL     1     -47.384  -3.526 -33.225  0.00  0.00    +0.000 OA
ATOM     26  H   UNL     1     -47.589  -4.323 -32.713  0.00  0.00    +0.000 HD
ENDBRANCH  24  25
BRANCH  24  27
ATOM     27  C   UNL     1     -45.034  -3.369 -33.572  0.00  0.00    +0.000 C 
BRANCH  27  28
ATOM     28  O   UNL     1     -44.440  -4.523 -33.051  0.00  0.00    +0.000 OA
ATOM     29  H   UNL     1     -44.527  -5.248 -33.689  0.00  0.00    +0.000 HD
ENDBRANCH  27  28
BRANCH  27  30
ATOM     30  C   UNL     1     -44.008  -2.257 -33.711  0.00  0.00    +0.000 C 
BRANCH  30  31
ATOM     31  O   UNL     1     -44.467  -1.106 -33.071  0.00  0.00    +0.000 OA
ATOM     32  H   UNL     1     -44.246  -0.327 -33.607  0.00  0.00    +0.000 HD
ENDBRANCH  30  31
ENDBRANCH  27  30
ENDBRANCH  24  27
ENDBRANCH  21  24
ENDBRANCH  20  21
ENDBRANCH  17  20
TORSDOF 9
ENDMDL
