MODEL 1
REMARK VINA RESULT:      -6.5      0.000      0.000
REMARK  Name = ZINC000493967026
REMARK  7 active torsions:
REMARK  status: ('A' for Active; 'I' for Inactive)
REMARK    1  A    between atoms: C_2  and  O_25
REMARK    2  A    between atoms: C_5  and  C_6
REMARK    3  A    between atoms: C_7  and  C_8
REMARK    4  A    between atoms: C_9  and  C_10
REMARK    5  A    between atoms: C_9  and  N_28
REMARK    6  A    between atoms: C_12  and  C_13
REMARK    7  A    between atoms: C_17  and  C_18
REMARK                            x       y       z     vdW  Elec       q    Type
REMARK                         _______ _______ _______ _____ _____    ______ ____
ROOT
ATOM      1  C   UNL     1     -43.953 -19.374 -25.667  0.00  0.00    +0.000 C 
ATOM      2  O   UNL     1     -44.998 -20.074 -25.729  0.00  0.00    +0.000 OA
ATOM      3  N   UNL     1     -43.037 -19.532 -24.580  0.00  0.00    +0.000 NA
ENDROOT
BRANCH   1   5
ATOM      4  C   UNL     1     -43.202 -17.042 -26.128  0.00  0.00    +0.000 C 
ATOM      5  C   UNL     1     -43.679 -18.374 -26.740  0.00  0.00    +0.000 C 
ATOM      6  C   UNL     1     -42.578 -18.876 -27.683  0.00  0.00    +0.000 C 
ATOM      7  C   UNL     1     -41.563 -17.807 -27.617  0.00  0.00    +0.000 C 
ATOM      8  C   UNL     1     -41.020 -15.706 -26.306  0.00  0.00    +0.000 C 
ATOM      9  O   UNL     1     -40.474 -17.835 -28.248  0.00  0.00    +0.000 OA
ATOM     10  N   UNL     1     -41.927 -16.749 -26.755  0.00  0.00    +0.000 N 
BRANCH   4  14
ATOM     11  C   UNL     1     -46.084 -13.918 -26.824  0.00  0.00    +0.000 A 
ATOM     12  C   UNL     1     -45.964 -14.511 -25.563  0.00  0.00    +0.000 A 
ATOM     13  C   UNL     1     -45.024 -15.523 -25.345  0.00  0.00    +0.000 A 
ATOM     14  C   UNL     1     -44.195 -15.950 -26.387  0.00  0.00    +0.000 A 
ATOM     15  C   UNL     1     -44.314 -15.360 -27.654  0.00  0.00    +0.000 A 
ATOM     16  C   UNL     1     -45.254 -14.348 -27.871  0.00  0.00    +0.000 A 
BRANCH  11  18
ATOM     17  C   UNL     1     -47.060 -12.082 -28.163  0.00  0.00    +0.000 C 
ATOM     18  O   UNL     1     -47.033 -12.908 -27.007  0.00  0.00    +0.000 OA
ENDBRANCH  11  18
ENDBRANCH   4  14
ENDBRANCH   1   5
BRANCH   3  19
ATOM     19  C   UNL     1     -43.268 -20.488 -23.511  0.00  0.00    +0.000 C 
BRANCH  19  20
ATOM     20  C   UNL     1     -43.709 -19.765 -22.288  0.00  0.00    +0.000 A 
ATOM     21  C   UNL     1     -43.881 -19.199 -20.238  0.00  0.00    +0.000 A 
ATOM     22  C   UNL     1     -44.596 -18.321 -21.029  0.00  0.00    +0.000 A 
ATOM     23  N   UNL     1     -43.315 -20.113 -21.047  0.00  0.00    +0.000 NA
ATOM     24  N   UNL     1     -44.487 -18.667 -22.325  0.00  0.00    +0.000 NA
BRANCH  22  25
ATOM     25  C   UNL     1     -45.366 -17.159 -20.551  0.00  0.00    +0.000 A 
ATOM     26  C   UNL     1     -45.999 -17.199 -19.301  0.00  0.00    +0.000 A 
ATOM     27  C   UNL     1     -46.731 -16.099 -18.845  0.00  0.00    +0.000 A 
ATOM     28  C   UNL     1     -46.834 -14.951 -19.636  0.00  0.00    +0.000 A 
ATOM     29  C   UNL     1     -46.206 -14.904 -20.883  0.00  0.00    +0.000 A 
ATOM     30  C   UNL     1     -45.474 -16.004 -21.340  0.00  0.00    +0.000 A 
BRANCH  29  31
ATOM     31  C   UNL     1     -46.313 -13.725 -21.696  0.00  0.00    +0.000 C 
ATOM     32  N   UNL     1     -46.398 -12.776 -22.352  0.00  0.00    +0.000 NA
ENDBRANCH  29  31
ENDBRANCH  22  25
ENDBRANCH  19  20
ENDBRANCH   3  19
TORSDOF 7
ENDMDL
MODEL 2
REMARK VINA RESULT:      -6.5      8.855     13.382
REMARK  Name = ZINC000493967026
REMARK  7 active torsions:
REMARK  status: ('A' for Active; 'I' for Inactive)
REMARK    1  A    between atoms: C_2  and  O_25
REMARK    2  A    between atoms: C_5  and  C_6
REMARK    3  A    between atoms: C_7  and  C_8
REMARK    4  A    between atoms: C_9  and  C_10
REMARK    5  A    between atoms: C_9  and  N_28
REMARK    6  A    between atoms: C_12  and  C_13
REMARK    7  A    between atoms: C_17  and  C_18
REMARK                            x       y       z     vdW  Elec       q    Type
REMARK                         _______ _______ _______ _____ _____    ______ ____
ROOT
ATOM      1  C   UNL     1     -46.725  -4.265 -30.559  0.00  0.00    +0.000 C 
ATOM      2  O   UNL     1     -47.673  -3.750 -29.909  0.00  0.00    +0.000 OA
ATOM      3  N   UNL     1     -45.993  -5.370 -30.021  0.00  0.00    +0.000 NA
ENDROOT
BRANCH   1   5
ATOM      4  C   UNL     1     -45.020  -4.278 -32.378  0.00  0.00    +0.000 C 
ATOM      5  C   UNL     1     -46.369  -3.709 -31.897  0.00  0.00    +0.000 C 
ATOM      6  C   UNL     1     -47.432  -4.080 -32.940  0.00  0.00    +0.000 C 
ATOM      7  C   UNL     1     -46.654  -4.782 -33.979  0.00  0.00    +0.000 C 
ATOM      8  C   UNL     1     -44.335  -5.722 -34.384  0.00  0.00    +0.000 C 
ATOM      9  O   UNL     1     -47.162  -5.268 -35.024  0.00  0.00    +0.000 OA
ATOM     10  N   UNL     1     -45.278  -4.873 -33.676  0.00  0.00    +0.000 N 
BRANCH   4  14
ATOM     11  C   UNL     1     -42.092  -1.134 -32.677  0.00  0.00    +0.000 A 
ATOM     12  C   UNL     1     -43.458  -0.850 -32.779  0.00  0.00    +0.000 A 
ATOM     13  C   UNL     1     -44.403  -1.876 -32.678  0.00  0.00    +0.000 A 
ATOM     14  C   UNL     1     -43.988  -3.196 -32.474  0.00  0.00    +0.000 A 
ATOM     15  C   UNL     1     -42.619  -3.486 -32.375  0.00  0.00    +0.000 A 
ATOM     16  C   UNL     1     -41.676  -2.459 -32.475  0.00  0.00    +0.000 A 
BRANCH  11  18
ATOM     17  C   UNL     1     -40.354   0.326 -31.697  0.00  0.00    +0.000 C 
ATOM     18  O   UNL     1     -41.175  -0.085 -32.782  0.00  0.00    +0.000 OA
ENDBRANCH  11  18
ENDBRANCH   4  14
ENDBRANCH   1   5
BRANCH   3  19
ATOM     19  C   UNL     1     -46.300  -5.937 -28.720  0.00  0.00    +0.000 C 
BRANCH  19  20
ATOM     20  C   UNL     1     -46.704  -7.360 -28.882  0.00  0.00    +0.000 A 
ATOM     21  C   UNL     1     -47.590  -9.117 -29.704  0.00  0.00    +0.000 A 
ATOM     22  C   UNL     1     -46.816  -9.450 -28.610  0.00  0.00    +0.000 A 
ATOM     23  N   UNL     1     -47.510  -7.785 -29.875  0.00  0.00    +0.000 NA
ATOM     24  N   UNL     1     -46.248  -8.347 -28.089  0.00  0.00    +0.000 NA
BRANCH  22  25
ATOM     25  C   UNL     1     -46.615 -10.808 -28.074  0.00  0.00    +0.000 A 
ATOM     26  C   UNL     1     -46.700 -11.920 -28.923  0.00  0.00    +0.000 A 
ATOM     27  C   UNL     1     -46.510 -13.210 -28.418  0.00  0.00    +0.000 A 
ATOM     28  C   UNL     1     -46.233 -13.396 -27.061  0.00  0.00    +0.000 A 
ATOM     29  C   UNL     1     -46.147 -12.293 -26.208  0.00  0.00    +0.000 A 
ATOM     30  C   UNL     1     -46.337 -11.002 -26.713  0.00  0.00    +0.000 A 
BRANCH  29  31
ATOM     31  C   UNL     1     -45.863 -12.483 -24.814  0.00  0.00    +0.000 C 
ATOM     32  N   UNL     1     -45.634 -12.636 -23.690  0.00  0.00    +0.000 NA
ENDBRANCH  29  31
ENDBRANCH  22  25
ENDBRANCH  19  20
ENDBRANCH   3  19
TORSDOF 7
ENDMDL
MODEL 3
REMARK VINA RESULT:      -6.4      7.880     12.559
REMARK  Name = ZINC000493967026
REMARK  7 active torsions:
REMARK  status: ('A' for Active; 'I' for Inactive)
REMARK    1  A    between atoms: C_2  and  O_25
REMARK    2  A    between atoms: C_5  and  C_6
REMARK    3  A    between atoms: C_7  and  C_8
REMARK    4  A    between atoms: C_9  and  C_10
REMARK    5  A    between atoms: C_9  and  N_28
REMARK    6  A    between atoms: C_12  and  C_13
REMARK    7  A    between atoms: C_17  and  C_18
REMARK                            x       y       z     vdW  Elec       q    Type
REMARK                         _______ _______ _______ _____ _____    ______ ____
ROOT
ATOM      1  C   UNL     1     -46.525  -6.183 -33.655  0.00  0.00    +0.000 C 
ATOM      2  O   UNL     1     -46.478  -6.068 -34.908  0.00  0.00    +0.000 OA
ATOM      3  N   UNL     1     -46.494  -7.475 -33.043  0.00  0.00    +0.000 NA
ENDROOT
BRANCH   1   5
ATOM      4  C   UNL     1     -45.389  -4.839 -31.889  0.00  0.00    +0.000 C 
ATOM      5  C   UNL     1     -46.618  -4.955 -32.811  0.00  0.00    +0.000 C 
ATOM      6  C   UNL     1     -46.666  -3.697 -33.688  0.00  0.00    +0.000 C 
ATOM      7  C   UNL     1     -45.520  -2.903 -33.203  0.00  0.00    +0.000 C 
ATOM      8  C   UNL     1     -43.506  -3.111 -31.678  0.00  0.00    +0.000 C 
ATOM      9  O   UNL     1     -45.194  -1.783 -33.675  0.00  0.00    +0.000 OA
ATOM     10  N   UNL     1     -44.808  -3.537 -32.161  0.00  0.00    +0.000 N 
BRANCH   4  14
ATOM     11  C   UNL     1     -46.505  -5.243 -27.749  0.00  0.00    +0.000 A 
ATOM     12  C   UNL     1     -45.416  -5.952 -28.268  0.00  0.00    +0.000 A 
ATOM     13  C   UNL     1     -45.059  -5.813 -29.613  0.00  0.00    +0.000 A 
ATOM     14  C   UNL     1     -45.788  -4.963 -30.450  0.00  0.00    +0.000 A 
ATOM     15  C   UNL     1     -46.882  -4.252 -29.934  0.00  0.00    +0.000 A 
ATOM     16  C   UNL     1     -47.238  -4.392 -28.590  0.00  0.00    +0.000 A 
BRANCH  11  18
ATOM     17  C   UNL     1     -47.380  -4.354 -25.613  0.00  0.00    +0.000 C 
ATOM     18  O   UNL     1     -46.834  -5.404 -26.400  0.00  0.00    +0.000 OA
ENDBRANCH  11  18
ENDBRANCH   4  14
ENDBRANCH   1   5
BRANCH   3  19
ATOM     19  C   UNL     1     -46.412  -8.696 -33.825  0.00  0.00    +0.000 C 
BRANCH  19  20
ATOM     20  C   UNL     1     -46.110  -9.842 -32.926  0.00  0.00    +0.000 A 
ATOM     21  C   UNL     1     -45.257 -11.655 -32.196  0.00  0.00    +0.000 A 
ATOM     22  C   UNL     1     -46.017 -11.064 -31.207  0.00  0.00    +0.000 A 
ATOM     23  N   UNL     1     -45.317 -10.869 -33.287  0.00  0.00    +0.000 NA
ATOM     24  N   UNL     1     -46.554  -9.915 -31.657  0.00  0.00    +0.000 NA
BRANCH  22  25
ATOM     25  C   UNL     1     -46.220 -11.586 -29.844  0.00  0.00    +0.000 A 
ATOM     26  C   UNL     1     -46.053 -12.953 -29.582  0.00  0.00    +0.000 A 
ATOM     27  C   UNL     1     -46.245 -13.453 -28.290  0.00  0.00    +0.000 A 
ATOM     28  C   UNL     1     -46.605 -12.588 -27.253  0.00  0.00    +0.000 A 
ATOM     29  C   UNL     1     -46.772 -11.225 -27.506  0.00  0.00    +0.000 A 
ATOM     30  C   UNL     1     -46.580 -10.725 -28.797  0.00  0.00    +0.000 A 
BRANCH  29  31
ATOM     31  C   UNL     1     -47.142 -10.336 -26.440  0.00  0.00    +0.000 C 
ATOM     32  N   UNL     1     -47.440  -9.620 -25.582  0.00  0.00    +0.000 NA
ENDBRANCH  29  31
ENDBRANCH  22  25
ENDBRANCH  19  20
ENDBRANCH   3  19
TORSDOF 7
ENDMDL
