MODEL 1
REMARK VINA RESULT:      -5.8      0.000      0.000
REMARK  Name = ZINC000095989116 PubChem-97337050
REMARK  7 active torsions:
REMARK  status: ('A' for Active; 'I' for Inactive)
REMARK    1  A    between atoms: C_2  and  C_4
REMARK    2  A    between atoms: C_4  and  N_23
REMARK    3  A    between atoms: C_7  and  C_8
REMARK    4  A    between atoms: C_8  and  N_25
REMARK    5  A    between atoms: C_9  and  C_10
REMARK    6  A    between atoms: C_13  and  C_14
REMARK    7  A    between atoms: C_20  and  N_26
REMARK                            x       y       z     vdW  Elec       q    Type
REMARK                         _______ _______ _______ _____ _____    ______ ____
ROOT
ATOM      1  C   UNL     1     -46.749  -5.712 -32.627  0.00  0.00    +0.000 C 
ATOM      2  C   UNL     1     -47.112  -4.600 -33.620  0.00  0.00    +0.000 C 
ATOM      3  C   UNL     1     -46.144  -3.533 -33.304  0.00  0.00    +0.000 C 
ATOM      4  C   UNL     1     -45.584  -5.203 -31.756  0.00  0.00    +0.000 C 
ATOM      5  N   UNL     1     -45.265  -3.875 -32.247  0.00  0.00    +0.000 N 
ATOM      6  O   UNL     1     -46.093  -2.433 -33.915  0.00  0.00    +0.000 OA
ENDROOT
BRANCH   4   7
ATOM      7  C   UNL     1     -45.977  -5.164 -30.311  0.00  0.00    +0.000 A 
ATOM      8  C   UNL     1     -45.203  -5.803 -29.330  0.00  0.00    +0.000 A 
ATOM      9  C   UNL     1     -45.583  -5.745 -27.986  0.00  0.00    +0.000 A 
ATOM     10  C   UNL     1     -46.742  -5.048 -27.617  0.00  0.00    +0.000 A 
ATOM     11  C   UNL     1     -47.519  -4.421 -28.596  0.00  0.00    +0.000 A 
ATOM     12  C   UNL     1     -47.137  -4.476 -29.939  0.00  0.00    +0.000 A 
ATOM     13 CL   UNL     1     -47.231  -4.950 -25.935  0.00  0.00    +0.000 Cl
ATOM     14  F   UNL     1     -44.817  -6.357 -27.048  0.00  0.00    +0.000 F 
ENDBRANCH   4   7
BRANCH   1  15
ATOM     15  C   UNL     1     -46.350  -6.953 -33.355  0.00  0.00    +0.000 C 
ATOM     16  N   UNL     1     -46.643  -8.238 -32.801  0.00  0.00    +0.000 NA
ATOM     17  O   UNL     1     -45.736  -6.855 -34.449  0.00  0.00    +0.000 OA
BRANCH  16  18
ATOM     18  C   UNL     1     -46.279  -9.470 -33.480  0.00  0.00    +0.000 C 
BRANCH  18  21
ATOM     19  C   UNL     1     -44.202 -11.216 -31.121  0.00  0.00    +0.000 A 
ATOM     20  C   UNL     1     -43.355 -11.097 -32.212  0.00  0.00    +0.000 A 
ATOM     21  C   UNL     1     -45.213 -10.170 -32.706  0.00  0.00    +0.000 A 
ATOM     22  N   UNL     1     -45.367 -10.638 -31.455  0.00  0.00    +0.000 N 
ATOM     23  N   UNL     1     -43.994 -10.443 -33.208  0.00  0.00    +0.000 NA
BRANCH  22  24
ATOM     24  C   UNL     1     -46.548 -10.517 -30.608  0.00  0.00    +0.000 C 
BRANCH  24  26
ATOM     25  C   UNL     1     -47.590  -8.586 -29.456  0.00  0.00    +0.000 C 
ATOM     26  C   UNL     1     -46.345  -9.445 -29.547  0.00  0.00    +0.000 C 
ATOM     27  C   UNL     1     -46.084 -10.081 -28.197  0.00  0.00    +0.000 C 
ENDBRANCH  24  26
ENDBRANCH  22  24
ENDBRANCH  18  21
ENDBRANCH  16  18
ENDBRANCH   1  15
BRANCH   5  28
ATOM     28  C   UNL     1     -44.133  -3.083 -31.768  0.00  0.00    +0.000 C 
ATOM     29  C   UNL     1     -42.989  -3.115 -32.766  0.00  0.00    +0.000 C 
ATOM     30  C   UNL     1     -44.557  -1.651 -31.498  0.00  0.00    +0.000 C 
ENDBRANCH   5  28
TORSDOF 7
ENDMDL
MODEL 2
REMARK VINA RESULT:      -5.7      2.995      6.226
REMARK  Name = ZINC000095989116 PubChem-97337050
REMARK  7 active torsions:
REMARK  status: ('A' for Active; 'I' for Inactive)
REMARK    1  A    between atoms: C_2  and  C_4
REMARK    2  A    between atoms: C_4  and  N_23
REMARK    3  A    between atoms: C_7  and  C_8
REMARK    4  A    between atoms: C_8  and  N_25
REMARK    5  A    between atoms: C_9  and  C_10
REMARK    6  A    between atoms: C_13  and  C_14
REMARK    7  A    between atoms: C_20  and  N_26
REMARK                            x       y       z     vdW  Elec       q    Type
REMARK                         _______ _______ _______ _____ _____    ______ ____
ROOT
ATOM      1  C   UNL     1     -47.074  -5.702 -31.238  0.00  0.00    +0.000 C 
ATOM      2  C   UNL     1     -47.755  -4.806 -30.196  0.00  0.00    +0.000 C 
ATOM      3  C   UNL     1     -46.875  -4.926 -29.017  0.00  0.00    +0.000 C 
ATOM      4  C   UNL     1     -45.826  -6.325 -30.580  0.00  0.00    +0.000 C 
ATOM      5  N   UNL     1     -45.770  -5.785 -29.234  0.00  0.00    +0.000 N 
ATOM      6  O   UNL     1     -47.077  -4.321 -27.931  0.00  0.00    +0.000 OA
ENDROOT
BRANCH   4   7
ATOM      7  C   UNL     1     -45.927  -7.820 -30.558  0.00  0.00    +0.000 A 
ATOM      8  C   UNL     1     -44.859  -8.625 -30.982  0.00  0.00    +0.000 A 
ATOM      9  C   UNL     1     -44.971 -10.018 -30.943  0.00  0.00    +0.000 A 
ATOM     10  C   UNL     1     -46.153 -10.613 -30.482  0.00  0.00    +0.000 A 
ATOM     11  C   UNL     1     -47.222  -9.809 -30.069  0.00  0.00    +0.000 A 
ATOM     12  C   UNL     1     -47.108  -8.417 -30.105  0.00  0.00    +0.000 A 
ATOM     13 CL   UNL     1     -46.310 -12.358 -30.411  0.00  0.00    +0.000 Cl
ATOM     14  F   UNL     1     -43.925 -10.784 -31.345  0.00  0.00    +0.000 F 
ENDBRANCH   4   7
BRANCH   1  15
ATOM     15  C   UNL     1     -46.684  -4.905 -32.439  0.00  0.00    +0.000 C 
ATOM     16  N   UNL     1     -46.210  -3.565 -32.290  0.00  0.00    +0.000 NA
ATOM     17  O   UNL     1     -46.797  -5.419 -33.582  0.00  0.00    +0.000 OA
BRANCH  16  18
ATOM     18  C   UNL     1     -45.813  -2.758 -33.431  0.00  0.00    +0.000 C 
BRANCH  18  21
ATOM     19  C   UNL     1     -42.404  -1.691 -33.017  0.00  0.00    +0.000 A 
ATOM     20  C   UNL     1     -43.105  -0.598 -32.531  0.00  0.00    +0.000 A 
ATOM     21  C   UNL     1     -44.517  -2.080 -33.136  0.00  0.00    +0.000 A 
ATOM     22  N   UNL     1     -43.308  -2.606 -33.402  0.00  0.00    +0.000 N 
ATOM     23  N   UNL     1     -44.432  -0.844 -32.611  0.00  0.00    +0.000 NA
BRANCH  22  24
ATOM     24  C   UNL     1     -43.024  -3.920 -33.966  0.00  0.00    +0.000 C 
BRANCH  24  26
ATOM     25  C   UNL     1     -43.363  -6.312 -33.414  0.00  0.00    +0.000 C 
ATOM     26  C   UNL     1     -42.922  -4.970 -32.868  0.00  0.00    +0.000 C 
ATOM     27  C   UNL     1     -41.495  -5.081 -32.375  0.00  0.00    +0.000 C 
ENDBRANCH  24  26
ENDBRANCH  22  24
ENDBRANCH  18  21
ENDBRANCH  16  18
ENDBRANCH   1  15
BRANCH   5  28
ATOM     28  C   UNL     1     -44.667  -6.032 -28.307  0.00  0.00    +0.000 C 
ATOM     29  C   UNL     1     -44.918  -7.290 -27.492  0.00  0.00    +0.000 C 
ATOM     30  C   UNL     1     -43.352  -6.142 -29.055  0.00  0.00    +0.000 C 
ENDBRANCH   5  28
TORSDOF 7
ENDMDL
MODEL 3
REMARK VINA RESULT:      -5.6      2.631      4.164
REMARK  Name = ZINC000095989116 PubChem-97337050
REMARK  7 active torsions:
REMARK  status: ('A' for Active; 'I' for Inactive)
REMARK    1  A    between atoms: C_2  and  C_4
REMARK    2  A    between atoms: C_4  and  N_23
REMARK    3  A    between atoms: C_7  and  C_8
REMARK    4  A    between atoms: C_8  and  N_25
REMARK    5  A    between atoms: C_9  and  C_10
REMARK    6  A    between atoms: C_13  and  C_14
REMARK    7  A    between atoms: C_20  and  N_26
REMARK                            x       y       z     vdW  Elec       q    Type
REMARK                         _______ _______ _______ _____ _____    ______ ____
ROOT
ATOM      1  C   UNL     1     -46.464  -5.842 -32.627  0.00  0.00    +0.000 C 
ATOM      2  C   UNL     1     -47.048  -4.792 -33.580  0.00  0.00    +0.000 C 
ATOM      3  C   UNL     1     -46.285  -3.572 -33.250  0.00  0.00    +0.000 C 
ATOM      4  C   UNL     1     -45.392  -5.150 -31.763  0.00  0.00    +0.000 C 
ATOM      5  N   UNL     1     -45.334  -3.774 -32.220  0.00  0.00    +0.000 N 
ATOM      6  O   UNL     1     -46.453  -2.466 -33.829  0.00  0.00    +0.000 OA
ENDROOT
BRANCH   4   7
ATOM      7  C   UNL     1     -45.752  -5.221 -30.310  0.00  0.00    +0.000 A 
ATOM      8  C   UNL     1     -44.933  -5.895 -29.392  0.00  0.00    +0.000 A 
ATOM      9  C   UNL     1     -45.283  -5.941 -28.039  0.00  0.00    +0.000 A 
ATOM     10  C   UNL     1     -46.456  -5.314 -27.599  0.00  0.00    +0.000 A 
ATOM     11  C   UNL     1     -47.278  -4.651 -28.517  0.00  0.00    +0.000 A 
ATOM     12  C   UNL     1     -46.926  -4.603 -29.868  0.00  0.00    +0.000 A 
ATOM     13 CL   UNL     1     -46.908  -5.346 -25.904  0.00  0.00    +0.000 Cl
ATOM     14  F   UNL     1     -44.474  -6.586 -27.161  0.00  0.00    +0.000 F 
ENDBRANCH   4   7
BRANCH   1  15
ATOM     15  C   UNL     1     -45.860  -6.970 -33.399  0.00  0.00    +0.000 C 
ATOM     16  N   UNL     1     -46.036  -7.048 -34.815  0.00  0.00    +0.000 NA
ATOM     17  O   UNL     1     -45.213  -7.858 -32.786  0.00  0.00    +0.000 OA
BRANCH  16  18
ATOM     18  C   UNL     1     -45.459  -8.123 -35.604  0.00  0.00    +0.000 C 
BRANCH  18  21
ATOM     19  C   UNL     1     -43.312  -6.718 -38.122  0.00  0.00    +0.000 A 
ATOM     20  C   UNL     1     -44.485  -6.923 -38.831  0.00  0.00    +0.000 A 
ATOM     21  C   UNL     1     -44.804  -7.556 -36.818  0.00  0.00    +0.000 A 
ATOM     22  N   UNL     1     -43.529  -7.131 -36.863  0.00  0.00    +0.000 N 
ATOM     23  N   UNL     1     -45.420  -7.454 -38.011  0.00  0.00    +0.000 NA
BRANCH  22  24
ATOM     24  C   UNL     1     -42.574  -7.092 -35.762  0.00  0.00    +0.000 C 
BRANCH  24  26
ATOM     25  C   UNL     1     -42.307  -5.987 -33.561  0.00  0.00    +0.000 C 
ATOM     26  C   UNL     1     -42.660  -5.768 -35.017  0.00  0.00    +0.000 C 
ATOM     27  C   UNL     1     -41.698  -4.762 -35.614  0.00  0.00    +0.000 C 
ENDBRANCH  24  26
ENDBRANCH  22  24
ENDBRANCH  18  21
ENDBRANCH  16  18
ENDBRANCH   1  15
BRANCH   5  28
ATOM     28  C   UNL     1     -44.357  -2.799 -31.738  0.00  0.00    +0.000 C 
ATOM     29  C   UNL     1     -43.355  -2.455 -32.826  0.00  0.00    +0.000 C 
ATOM     30  C   UNL     1     -45.051  -1.544 -31.243  0.00  0.00    +0.000 C 
ENDBRANCH   5  28
TORSDOF 7
ENDMDL
