MODEL 1
REMARK VINA RESULT:      -7.4      0.000      0.000
REMARK  Name = ZINC000014495283
REMARK  4 active torsions:
REMARK  status: ('A' for Active; 'I' for Inactive)
REMARK    1  A    between atoms: C_1  and  C_14
REMARK    2  A    between atoms: C_9  and  S_25
REMARK    3  A    between atoms: N_13  and  C_24
REMARK    4  A    between atoms: S_25  and  N_28
REMARK                            x       y       z     vdW  Elec       q    Type
REMARK                         _______ _______ _______ _____ _____    ______ ____
ROOT
ATOM      1  C   UNL     1     -45.290  -7.170 -25.990  0.00  0.00    +0.000 A 
ATOM      2  C   UNL     1     -44.507  -7.394 -24.850  0.00  0.00    +0.000 A 
ATOM      3  C   UNL     1     -43.125  -7.219 -24.900  0.00  0.00    +0.000 A 
ATOM      4  O   UNL     1     -42.429  -7.418 -23.871  0.00  0.00    +0.000 OA
ATOM      5  N   UNL     1     -42.526  -6.835 -26.058  0.00  0.00    +0.000 N 
ATOM      6  C   UNL     1     -43.243  -6.611 -27.190  0.00  0.00    +0.000 A 
ATOM      7  C   UNL     1     -42.587  -6.212 -28.358  0.00  0.00    +0.000 A 
ATOM      8  C   UNL     1     -43.316  -5.968 -29.524  0.00  0.00    +0.000 A 
ATOM      9  C   UNL     1     -44.706  -6.120 -29.528  0.00  0.00    +0.000 A 
ATOM     10  C   UNL     1     -45.369  -6.517 -28.364  0.00  0.00    +0.000 A 
ATOM     11  C   UNL     1     -44.651  -6.775 -27.186  0.00  0.00    +0.000 A 
ATOM     12  H   UNL     1     -41.550  -6.717 -26.078  0.00  0.00    +0.000 HD
ENDROOT
BRANCH   1  14
ATOM     13  N   UNL     1     -47.627  -6.437 -25.284  0.00  0.00    +0.000 N 
ATOM     14  C   UNL     1     -46.754  -7.393 -25.901  0.00  0.00    +0.000 C 
ATOM     15  O   UNL     1     -47.244  -8.478 -26.311  0.00  0.00    +0.000 OA
ATOM     16  H   UNL     1     -48.418  -6.792 -24.815  0.00  0.00    +0.000 HD
BRANCH  13  24
ATOM     17  C   UNL     1     -47.258  -5.083 -22.779  0.00  0.00    +0.000 C 
ATOM     18  C   UNL     1     -47.296  -4.323 -24.067  0.00  0.00    +0.000 A 
ATOM     19  C   UNL     1     -47.161  -2.921 -24.066  0.00  0.00    +0.000 A 
ATOM     20 CL   UNL     1     -46.941  -2.016 -22.576  0.00  0.00    +0.000 Cl
ATOM     21  C   UNL     1     -47.203  -2.217 -25.272  0.00  0.00    +0.000 A 
ATOM     22  C   UNL     1     -47.382  -2.895 -26.479  0.00  0.00    +0.000 A 
ATOM     23  C   UNL     1     -47.514  -4.283 -26.483  0.00  0.00    +0.000 A 
ATOM     24  C   UNL     1     -47.458  -5.011 -25.284  0.00  0.00    +0.000 A 
ENDBRANCH  13  24
ENDBRANCH   1  14
BRANCH   9  25
ATOM     25  S   UNL     1     -45.627  -5.812 -30.990  0.00  0.00    +0.000 S 
ATOM     26  O   UNL     1     -46.957  -5.206 -30.628  0.00  0.00    +0.000 OA
ATOM     27  O   UNL     1     -45.860  -7.115 -31.701  0.00  0.00    +0.000 OA
BRANCH  25  28
ATOM     28  N   UNL     1     -44.735  -4.731 -32.025  0.00  0.00    +0.000 NA
ATOM     29  C   UNL     1     -44.858  -3.345 -31.546  0.00  0.00    +0.000 C 
ATOM     30  C   UNL     1     -46.185  -2.709 -31.977  0.00  0.00    +0.000 C 
ATOM     31  O   UNL     1     -46.306  -2.764 -33.373  0.00  0.00    +0.000 OA
ATOM     32  C   UNL     1     -46.476  -4.119 -33.694  0.00  0.00    +0.000 C 
ATOM     33  C   UNL     1     -45.175  -4.883 -33.421  0.00  0.00    +0.000 C 
ENDBRANCH  25  28
ENDBRANCH   9  25
TORSDOF 4
ENDMDL
MODEL 2
REMARK VINA RESULT:      -7.0      4.349      7.931
REMARK  Name = ZINC000014495283
REMARK  4 active torsions:
REMARK  status: ('A' for Active; 'I' for Inactive)
REMARK    1  A    between atoms: C_1  and  C_14
REMARK    2  A    between atoms: C_9  and  S_25
REMARK    3  A    between atoms: N_13  and  C_24
REMARK    4  A    between atoms: S_25  and  N_28
REMARK                            x       y       z     vdW  Elec       q    Type
REMARK                         _______ _______ _______ _____ _____    ______ ____
ROOT
ATOM      1  C   UNL     1     -46.688  -5.016 -31.972  0.00  0.00    +0.000 A 
ATOM      2  C   UNL     1     -46.931  -4.627 -33.296  0.00  0.00    +0.000 A 
ATOM      3  C   UNL     1     -46.923  -5.572 -34.320  0.00  0.00    +0.000 A 
ATOM      4  O   UNL     1     -47.145  -5.216 -35.505  0.00  0.00    +0.000 OA
ATOM      5  N   UNL     1     -46.672  -6.879 -34.041  0.00  0.00    +0.000 N 
ATOM      6  C   UNL     1     -46.427  -7.302 -32.774  0.00  0.00    +0.000 A 
ATOM      7  C   UNL     1     -46.181  -8.657 -32.532  0.00  0.00    +0.000 A 
ATOM      8  C   UNL     1     -45.939  -9.105 -31.232  0.00  0.00    +0.000 A 
ATOM      9  C   UNL     1     -45.944  -8.200 -30.165  0.00  0.00    +0.000 A 
ATOM     10  C   UNL     1     -46.191  -6.845 -30.400  0.00  0.00    +0.000 A 
ATOM     11  C   UNL     1     -46.427  -6.377 -31.702  0.00  0.00    +0.000 A 
ATOM     12  H   UNL     1     -46.669  -7.534 -34.775  0.00  0.00    +0.000 HD
ENDROOT
BRANCH   1  14
ATOM     13  N   UNL     1     -45.522  -3.166 -30.660  0.00  0.00    +0.000 N 
ATOM     14  C   UNL     1     -46.680  -3.974 -30.915  0.00  0.00    +0.000 C 
ATOM     15  O   UNL     1     -47.686  -3.836 -30.170  0.00  0.00    +0.000 OA
ATOM     16  H   UNL     1     -45.371  -2.886 -29.728  0.00  0.00    +0.000 HD
BRANCH  13  24
ATOM     17  C   UNL     1     -43.124  -4.699 -31.034  0.00  0.00    +0.000 C 
ATOM     18  C   UNL     1     -43.371  -3.452 -31.821  0.00  0.00    +0.000 A 
ATOM     19  C   UNL     1     -42.417  -3.003 -32.755  0.00  0.00    +0.000 A 
ATOM     20 CL   UNL     1     -40.919  -3.878 -33.037  0.00  0.00    +0.000 Cl
ATOM     21  C   UNL     1     -42.651  -1.834 -33.483  0.00  0.00    +0.000 A 
ATOM     22  C   UNL     1     -43.824  -1.105 -33.287  0.00  0.00    +0.000 A 
ATOM     23  C   UNL     1     -44.772  -1.547 -32.365  0.00  0.00    +0.000 A 
ATOM     24  C   UNL     1     -44.563  -2.728 -31.635  0.00  0.00    +0.000 A 
ENDBRANCH  13  24
ENDBRANCH   1  14
BRANCH   9  25
ATOM     25  S   UNL     1     -45.644  -8.758 -28.528  0.00  0.00    +0.000 S 
ATOM     26  O   UNL     1     -45.436  -7.574 -27.624  0.00  0.00    +0.000 OA
ATOM     27  O   UNL     1     -44.400  -9.602 -28.524  0.00  0.00    +0.000 OA
BRANCH  25  28
ATOM     28  N   UNL     1     -46.998  -9.707 -27.978  0.00  0.00    +0.000 NA
ATOM     29  C   UNL     1     -47.431  -9.255 -26.646  0.00  0.00    +0.000 C 
ATOM     30  C   UNL     1     -46.542  -9.825 -25.534  0.00  0.00    +0.000 C 
ATOM     31  O   UNL     1     -46.533 -11.226 -25.604  0.00  0.00    +0.000 OA
ATOM     32  C   UNL     1     -45.835 -11.550 -26.777  0.00  0.00    +0.000 C 
ATOM     33  C   UNL     1     -46.660 -11.139 -28.002  0.00  0.00    +0.000 C 
ENDBRANCH  25  28
ENDBRANCH   9  25
TORSDOF 4
ENDMDL
MODEL 3
REMARK VINA RESULT:      -6.8      4.783      7.723
REMARK  Name = ZINC000014495283
REMARK  4 active torsions:
REMARK  status: ('A' for Active; 'I' for Inactive)
REMARK    1  A    between atoms: C_1  and  C_14
REMARK    2  A    between atoms: C_9  and  S_25
REMARK    3  A    between atoms: N_13  and  C_24
REMARK    4  A    between atoms: S_25  and  N_28
REMARK                            x       y       z     vdW  Elec       q    Type
REMARK                         _______ _______ _______ _____ _____    ______ ____
ROOT
ATOM      1  C   UNL     1     -46.562  -4.217 -32.078  0.00  0.00    +0.000 A 
ATOM      2  C   UNL     1     -46.737  -3.632 -30.817  0.00  0.00    +0.000 A 
ATOM      3  C   UNL     1     -46.667  -4.412 -29.664  0.00  0.00    +0.000 A 
ATOM      4  O   UNL     1     -46.821  -3.879 -28.535  0.00  0.00    +0.000 OA
ATOM      5  N   UNL     1     -46.434  -5.748 -29.755  0.00  0.00    +0.000 N 
ATOM      6  C   UNL     1     -46.263  -6.360 -30.956  0.00  0.00    +0.000 A 
ATOM      7  C   UNL     1     -46.019  -7.735 -31.003  0.00  0.00    +0.000 A 
ATOM      8  C   UNL     1     -45.831  -8.373 -32.232  0.00  0.00    +0.000 A 
ATOM      9  C   UNL     1     -45.882  -7.637 -33.420  0.00  0.00    +0.000 A 
ATOM     10  C   UNL     1     -46.124  -6.261 -33.380  0.00  0.00    +0.000 A 
ATOM     11  C   UNL     1     -46.324  -5.607 -32.154  0.00  0.00    +0.000 A 
ATOM     12  H   UNL     1     -46.389  -6.286 -28.932  0.00  0.00    +0.000 HD
ENDROOT
BRANCH   1  14
ATOM     13  N   UNL     1     -45.650  -2.408 -33.625  0.00  0.00    +0.000 N 
ATOM     14  C   UNL     1     -46.670  -3.356 -33.281  0.00  0.00    +0.000 C 
ATOM     15  O   UNL     1     -47.713  -3.400 -33.986  0.00  0.00    +0.000 OA
ATOM     16  H   UNL     1     -45.944  -1.577 -34.067  0.00  0.00    +0.000 HD
BRANCH  13  24
ATOM     17  C   UNL     1     -44.237  -0.282 -32.312  0.00  0.00    +0.000 C 
ATOM     18  C   UNL     1     -43.524  -1.517 -32.763  0.00  0.00    +0.000 A 
ATOM     19  C   UNL     1     -42.137  -1.649 -32.558  0.00  0.00    +0.000 A 
ATOM     20 CL   UNL     1     -41.196  -0.390 -31.770  0.00  0.00    +0.000 Cl
ATOM     21  C   UNL     1     -41.476  -2.802 -32.987  0.00  0.00    +0.000 A 
ATOM     22  C   UNL     1     -42.183  -3.825 -33.621  0.00  0.00    +0.000 A 
ATOM     23  C   UNL     1     -43.556  -3.699 -33.824  0.00  0.00    +0.000 A 
ATOM     24  C   UNL     1     -44.242  -2.554 -33.387  0.00  0.00    +0.000 A 
ENDBRANCH  13  24
ENDBRANCH   1  14
BRANCH   9  25
ATOM     25  S   UNL     1     -45.643  -8.432 -34.966  0.00  0.00    +0.000 S 
ATOM     26  O   UNL     1     -44.209  -8.872 -35.089  0.00  0.00    +0.000 OA
ATOM     27  O   UNL     1     -45.951  -7.456 -36.067  0.00  0.00    +0.000 OA
BRANCH  25  28
ATOM     28  N   UNL     1     -46.707  -9.807 -35.087  0.00  0.00    +0.000 NA
ATOM     29  C   UNL     1     -45.965 -11.052 -34.833  0.00  0.00    +0.000 C 
ATOM     30  C   UNL     1     -45.183 -11.511 -36.070  0.00  0.00    +0.000 C 
ATOM     31  O   UNL     1     -46.060 -11.667 -37.154  0.00  0.00    +0.000 OA
ATOM     32  C   UNL     1     -46.483 -10.376 -37.499  0.00  0.00    +0.000 C 
ATOM     33  C   UNL     1     -47.384  -9.813 -36.393  0.00  0.00    +0.000 C 
ENDBRANCH  25  28
ENDBRANCH   9  25
TORSDOF 4
ENDMDL
