MODEL 1
REMARK VINA RESULT:      -7.7      0.000      0.000
REMARK  Name = ZINC000008996339
REMARK  4 active torsions:
REMARK  status: ('A' for Active; 'I' for Inactive)
REMARK    1  A    between atoms: C_4  and  O_5
REMARK    2  A    between atoms: C_6  and  C_22
REMARK    3  A    between atoms: C_7  and  C_9
REMARK    4  A    between atoms: C_22  and  C_24
REMARK                            x       y       z     vdW  Elec       q    Type
REMARK                         _______ _______ _______ _____ _____    ______ ____
ROOT
ATOM      1  N   UNL     1     -45.498 -14.816 -25.636  0.00  0.00    +0.000 N 
ATOM      2  C   UNL     1     -44.748 -15.543 -26.596  0.00  0.00    +0.000 C 
ATOM      3  O   UNL     1     -44.205 -15.037 -27.613  0.00  0.00    +0.000 OA
ATOM      4  C   UNL     1     -44.722 -16.937 -26.238  0.00  0.00    +0.000 C 
ATOM      5  C   UNL     1     -45.419 -17.106 -25.114  0.00  0.00    +0.000 C 
ATOM      6  C   UNL     1     -45.951 -15.770 -24.621  0.00  0.00    +0.000 C 
ATOM      7  C   UNL     1     -45.724  -9.885 -25.205  0.00  0.00    +0.000 C 
ATOM      8  C   UNL     1     -45.986 -11.309 -25.540  0.00  0.00    +0.000 A 
ATOM      9  C   UNL     1     -45.202 -12.379 -25.156  0.00  0.00    +0.000 A 
ATOM     10  C   UNL     1     -45.888 -13.438 -25.726  0.00  0.00    +0.000 A 
ATOM     11  N   UNL     1     -46.981 -13.013 -26.388  0.00  0.00    +0.000 NA
ATOM     12  O   UNL     1     -47.005 -11.722 -26.254  0.00  0.00    +0.000 OA
ENDROOT
BRANCH   6  13
ATOM     13  C   UNL     1     -45.383 -15.415 -23.274  0.00  0.00    +0.000 A 
ATOM     14  C   UNL     1     -46.257 -15.098 -22.228  0.00  0.00    +0.000 A 
ATOM     15  C   UNL     1     -45.754 -14.754 -20.971  0.00  0.00    +0.000 A 
ATOM     16  C   UNL     1     -44.373 -14.720 -20.755  0.00  0.00    +0.000 A 
ATOM     17  C   UNL     1     -43.839 -14.355 -19.417  0.00  0.00    +0.000 C 
ATOM     18  C   UNL     1     -43.495 -15.028 -21.798  0.00  0.00    +0.000 A 
ATOM     19  C   UNL     1     -43.997 -15.371 -23.056  0.00  0.00    +0.000 A 
ENDBRANCH   6  13
BRANCH   4  20
ATOM     20  O   UNL     1     -44.091 -17.940 -26.964  0.00  0.00    +0.000 OA
ATOM     21  H   UNL     1     -44.467 -18.246 -27.765  0.00  0.00    +0.000 HD
ENDBRANCH   4  20
BRANCH   5  22
ATOM     22  C   UNL     1     -45.639 -18.410 -24.448  0.00  0.00    +0.000 C 
ATOM     23  O   UNL     1     -46.256 -19.326 -25.056  0.00  0.00    +0.000 OA
BRANCH  22  24
ATOM     24  C   UNL     1     -45.149 -18.669 -23.082  0.00  0.00    +0.000 A 
ATOM     25  C   UNL     1     -43.862 -19.119 -22.776  0.00  0.00    +0.000 A 
ATOM     26  C   UNL     1     -43.890 -19.207 -21.400  0.00  0.00    +0.000 A 
ATOM     27  C   UNL     1     -42.894 -19.597 -20.507  0.00  0.00    +0.000 A 
ATOM     28  C   UNL     1     -43.210 -19.589 -19.137  0.00  0.00    +0.000 A 
ATOM     29  C   UNL     1     -44.494 -19.197 -18.698  0.00  0.00    +0.000 A 
ATOM     30  C   UNL     1     -45.478 -18.808 -19.625  0.00  0.00    +0.000 A 
ATOM     31  C   UNL     1     -45.133 -18.828 -20.974  0.00  0.00    +0.000 A 
ATOM     32  O   UNL     1     -45.882 -18.510 -21.995  0.00  0.00    +0.000 OA
ENDBRANCH  22  24
ENDBRANCH   5  22
TORSDOF 4
ENDMDL
MODEL 2
REMARK VINA RESULT:      -7.1      3.623      7.056
REMARK  Name = ZINC000008996339
REMARK  4 active torsions:
REMARK  status: ('A' for Active; 'I' for Inactive)
REMARK    1  A    between atoms: C_4  and  O_5
REMARK    2  A    between atoms: C_6  and  C_22
REMARK    3  A    between atoms: C_7  and  C_9
REMARK    4  A    between atoms: C_22  and  C_24
REMARK                            x       y       z     vdW  Elec       q    Type
REMARK                         _______ _______ _______ _____ _____    ______ ____
ROOT
ATOM      1  N   UNL     1     -42.902 -19.843 -21.789  0.00  0.00    +0.000 N 
ATOM      2  C   UNL     1     -42.426 -19.473 -20.505  0.00  0.00    +0.000 C 
ATOM      3  O   UNL     1     -41.251 -19.665 -20.094  0.00  0.00    +0.000 OA
ATOM      4  C   UNL     1     -43.490 -18.867 -19.749  0.00  0.00    +0.000 C 
ATOM      5  C   UNL     1     -44.595 -18.850 -20.496  0.00  0.00    +0.000 C 
ATOM      6  C   UNL     1     -44.310 -19.445 -21.865  0.00  0.00    +0.000 C 
ATOM      7  C   UNL     1     -40.142 -21.280 -25.645  0.00  0.00    +0.000 C 
ATOM      8  C   UNL     1     -41.002 -21.237 -24.434  0.00  0.00    +0.000 A 
ATOM      9  C   UNL     1     -41.462 -20.088 -23.819  0.00  0.00    +0.000 A 
ATOM     10  C   UNL     1     -42.194 -20.616 -22.769  0.00  0.00    +0.000 A 
ATOM     11  N   UNL     1     -42.162 -21.962 -22.777  0.00  0.00    +0.000 NA
ATOM     12  O   UNL     1     -41.431 -22.300 -23.796  0.00  0.00    +0.000 OA
ENDROOT
BRANCH   6  13
ATOM     13  C   UNL     1     -44.512 -18.432 -22.959  0.00  0.00    +0.000 A 
ATOM     14  C   UNL     1     -45.485 -18.669 -23.936  0.00  0.00    +0.000 A 
ATOM     15  C   UNL     1     -45.685 -17.750 -24.968  0.00  0.00    +0.000 A 
ATOM     16  C   UNL     1     -44.908 -16.590 -25.031  0.00  0.00    +0.000 A 
ATOM     17  C   UNL     1     -45.121 -15.611 -26.129  0.00  0.00    +0.000 C 
ATOM     18  C   UNL     1     -43.928 -16.351 -24.063  0.00  0.00    +0.000 A 
ATOM     19  C   UNL     1     -43.728 -17.270 -23.030  0.00  0.00    +0.000 A 
ENDBRANCH   6  13
BRANCH   4  20
ATOM     20  O   UNL     1     -43.383 -18.400 -18.444  0.00  0.00    +0.000 OA
ATOM     21  H   UNL     1     -43.335 -17.479 -18.279  0.00  0.00    +0.000 HD
ENDBRANCH   4  20
BRANCH   5  22
ATOM     22  C   UNL     1     -45.905 -18.324 -20.050  0.00  0.00    +0.000 C 
ATOM     23  O   UNL     1     -46.848 -19.124 -19.804  0.00  0.00    +0.000 OA
BRANCH  22  24
ATOM     24  C   UNL     1     -46.138 -16.879 -19.882  0.00  0.00    +0.000 A 
ATOM     25  C   UNL     1     -46.442 -16.262 -18.665  0.00  0.00    +0.000 A 
ATOM     26  C   UNL     1     -46.565 -14.935 -19.018  0.00  0.00    +0.000 A 
ATOM     27  C   UNL     1     -46.858 -13.823 -18.232  0.00  0.00    +0.000 A 
ATOM     28  C   UNL     1     -46.919 -12.572 -18.873  0.00  0.00    +0.000 A 
ATOM     29  C   UNL     1     -46.690 -12.465 -20.262  0.00  0.00    +0.000 A 
ATOM     30  C   UNL     1     -46.397 -13.607 -21.028  0.00  0.00    +0.000 A 
ATOM     31  C   UNL     1     -46.344 -14.831 -20.364  0.00  0.00    +0.000 A 
ATOM     32  O   UNL     1     -46.091 -16.006 -20.872  0.00  0.00    +0.000 OA
ENDBRANCH  22  24
ENDBRANCH   5  22
TORSDOF 4
ENDMDL
MODEL 3
REMARK VINA RESULT:      -7.1     10.181     16.105
REMARK  Name = ZINC000008996339
REMARK  4 active torsions:
REMARK  status: ('A' for Active; 'I' for Inactive)
REMARK    1  A    between atoms: C_4  and  O_5
REMARK    2  A    between atoms: C_6  and  C_22
REMARK    3  A    between atoms: C_7  and  C_9
REMARK    4  A    between atoms: C_22  and  C_24
REMARK                            x       y       z     vdW  Elec       q    Type
REMARK                         _______ _______ _______ _____ _____    ______ ____
ROOT
ATOM      1  N   UNL     1     -45.797  -4.920 -30.976  0.00  0.00    +0.000 N 
ATOM      2  C   UNL     1     -46.072  -3.688 -30.328  0.00  0.00    +0.000 C 
ATOM      3  O   UNL     1     -46.747  -3.569 -29.272  0.00  0.00    +0.000 OA
ATOM      4  C   UNL     1     -45.478  -2.606 -31.069  0.00  0.00    +0.000 C 
ATOM      5  C   UNL     1     -44.859  -3.105 -32.140  0.00  0.00    +0.000 C 
ATOM      6  C   UNL     1     -44.987  -4.619 -32.160  0.00  0.00    +0.000 C 
ATOM      7  C   UNL     1     -46.543  -9.450 -29.115  0.00  0.00    +0.000 C 
ATOM      8  C   UNL     1     -46.671  -8.157 -29.836  0.00  0.00    +0.000 A 
ATOM      9  C   UNL     1     -45.734  -7.142 -29.831  0.00  0.00    +0.000 A 
ATOM     10  C   UNL     1     -46.348  -6.200 -30.639  0.00  0.00    +0.000 A 
ATOM     11  N   UNL     1     -47.545  -6.637 -31.077  0.00  0.00    +0.000 NA
ATOM     12  O   UNL     1     -47.705  -7.821 -30.570  0.00  0.00    +0.000 OA
ENDROOT
BRANCH   6  13
ATOM     13  C   UNL     1     -43.642  -5.286 -32.059  0.00  0.00    +0.000 A 
ATOM     14  C   UNL     1     -43.248  -6.180 -33.062  0.00  0.00    +0.000 A 
ATOM     15  C   UNL     1     -42.009  -6.821 -32.986  0.00  0.00    +0.000 A 
ATOM     16  C   UNL     1     -41.160  -6.574 -31.904  0.00  0.00    +0.000 A 
ATOM     17  C   UNL     1     -39.841  -7.255 -31.825  0.00  0.00    +0.000 C 
ATOM     18  C   UNL     1     -41.550  -5.688 -30.896  0.00  0.00    +0.000 A 
ATOM     19  C   UNL     1     -42.789  -5.048 -30.970  0.00  0.00    +0.000 A 
ENDBRANCH   6  13
BRANCH   4  20
ATOM     20  O   UNL     1     -45.562  -1.260 -30.731  0.00  0.00    +0.000 OA
ATOM     21  H   UNL     1     -44.994  -0.638 -31.142  0.00  0.00    +0.000 HD
ENDBRANCH   4  20
BRANCH   5  22
ATOM     22  C   UNL     1     -44.152  -2.295 -33.158  0.00  0.00    +0.000 C 
ATOM     23  O   UNL     1     -44.748  -1.966 -34.219  0.00  0.00    +0.000 OA
BRANCH  22  24
ATOM     24  C   UNL     1     -42.759  -1.857 -32.960  0.00  0.00    +0.000 A 
ATOM     25  C   UNL     1     -42.384  -0.577 -32.541  0.00  0.00    +0.000 A 
ATOM     26  C   UNL     1     -41.008  -0.659 -32.509  0.00  0.00    +0.000 A 
ATOM     27  C   UNL     1     -40.062   0.303 -32.162  0.00  0.00    +0.000 A 
ATOM     28  C   UNL     1     -38.706  -0.068 -32.221  0.00  0.00    +0.000 A 
ATOM     29  C   UNL     1     -38.335  -1.370 -32.620  0.00  0.00    +0.000 A 
ATOM     30  C   UNL     1     -39.314  -2.319 -32.965  0.00  0.00    +0.000 A 
ATOM     31  C   UNL     1     -40.647  -1.920 -32.896  0.00  0.00    +0.000 A 
ATOM     32  O   UNL     1     -41.708  -2.629 -33.167  0.00  0.00    +0.000 OA
ENDBRANCH  22  24
ENDBRANCH   5  22
TORSDOF 4
ENDMDL
