MODEL 1
REMARK VINA RESULT:      -6.8      0.000      0.000
REMARK  Name = ZINC000004878453 PubChem-92237773
REMARK  9 active torsions:
REMARK  status: ('A' for Active; 'I' for Inactive)
REMARK    1  A    between atoms: N_17  and  C_20
REMARK    2  A    between atoms: C_20  and  C_21
REMARK    3  A    between atoms: C_21  and  O_22
REMARK    4  A    between atoms: C_21  and  C_24
REMARK    5  A    between atoms: C_24  and  O_25
REMARK    6  A    between atoms: C_24  and  C_27
REMARK    7  A    between atoms: C_27  and  O_28
REMARK    8  A    between atoms: C_27  and  C_30
REMARK    9  A    between atoms: C_30  and  O_31
REMARK                            x       y       z     vdW  Elec       q    Type
REMARK                         _______ _______ _______ _____ _____    ______ ____
ROOT
ATOM      1  C   UNL     1     -47.345  -3.066 -23.322  0.00  0.00    +0.000 C 
ATOM      2  C   UNL     1     -47.208  -3.697 -24.666  0.00  0.00    +0.000 A 
ATOM      3  C   UNL     1     -47.369  -2.953 -25.847  0.00  0.00    +0.000 A 
ATOM      4  C   UNL     1     -47.234  -3.581 -27.088  0.00  0.00    +0.000 A 
ATOM      5  C   UNL     1     -46.941  -4.953 -27.181  0.00  0.00    +0.000 A 
ATOM      6  C   UNL     1     -46.776  -5.690 -25.979  0.00  0.00    +0.000 A 
ATOM      7  C   UNL     1     -46.913  -5.060 -24.740  0.00  0.00    +0.000 A 
ATOM      8  C   UNL     1     -46.472  -7.048 -26.018  0.00  0.00    +0.000 A 
ATOM      9  C   UNL     1     -46.324  -7.684 -27.244  0.00  0.00    +0.000 A 
ATOM     10  C   UNL     1     -46.015  -9.039 -27.371  0.00  0.00    +0.000 A 
ATOM     11  O   UNL     1     -45.856  -9.765 -26.353  0.00  0.00    +0.000 OA
ATOM     12  N   UNL     1     -45.881  -9.583 -28.610  0.00  0.00    +0.000 N 
ATOM     13  C   UNL     1     -46.041  -8.847 -29.745  0.00  0.00    +0.000 A 
ATOM     14  O   UNL     1     -45.906  -9.398 -30.868  0.00  0.00    +0.000 OA
ATOM     15  N   UNL     1     -46.344  -7.524 -29.676  0.00  0.00    +0.000 NA
ATOM     16  C   UNL     1     -46.497  -6.897 -28.480  0.00  0.00    +0.000 A 
ATOM     17  N   UNL     1     -46.815  -5.569 -28.406  0.00  0.00    +0.000 N 
ATOM     18  C   UNL     1     -47.682  -1.495 -25.814  0.00  0.00    +0.000 C 
ATOM     19  H   UNL     1     -45.663 -10.540 -28.689  0.00  0.00    +0.000 HD
ENDROOT
BRANCH  17  20
ATOM     20  C   UNL     1     -46.988  -4.811 -29.651  0.00  0.00    +0.000 C 
BRANCH  20  21
ATOM     21  C   UNL     1     -45.676  -4.183 -30.121  0.00  0.00    +0.000 C 
BRANCH  21  22
ATOM     22  O   UNL     1     -44.758  -5.209 -30.351  0.00  0.00    +0.000 OA
ATOM     23  H   UNL     1     -45.203  -6.067 -30.269  0.00  0.00    +0.000 HD
ENDBRANCH  21  22
BRANCH  21  24
ATOM     24  C   UNL     1     -45.871  -3.354 -31.395  0.00  0.00    +0.000 C 
BRANCH  24  25
ATOM     25  O   UNL     1     -47.169  -2.836 -31.443  0.00  0.00    +0.000 OA
ATOM     26  H   UNL     1     -47.195  -1.987 -30.972  0.00  0.00    +0.000 HD
ENDBRANCH  24  25
BRANCH  24  27
ATOM     27  C   UNL     1     -44.855  -2.213 -31.481  0.00  0.00    +0.000 C 
BRANCH  27  28
ATOM     28  O   UNL     1     -45.260  -1.134 -30.692  0.00  0.00    +0.000 OA
ATOM     29  H   UNL     1     -44.563  -0.922 -30.051  0.00  0.00    +0.000 HD
ENDBRANCH  27  28
BRANCH  27  30
ATOM     30  C   UNL     1     -44.683  -1.769 -32.924  0.00  0.00    +0.000 C 
BRANCH  30  31
ATOM     31  O   UNL     1     -45.643  -2.386 -33.727  0.00  0.00    +0.000 OA
ATOM     32  H   UNL     1     -46.414  -1.804 -33.812  0.00  0.00    +0.000 HD
ENDBRANCH  30  31
ENDBRANCH  27  30
ENDBRANCH  24  27
ENDBRANCH  21  24
ENDBRANCH  20  21
ENDBRANCH  17  20
TORSDOF 9
ENDMDL
MODEL 2
REMARK VINA RESULT:      -6.2     12.514     16.652
REMARK  Name = ZINC000004878453 PubChem-92237773
REMARK  9 active torsions:
REMARK  status: ('A' for Active; 'I' for Inactive)
REMARK    1  A    between atoms: N_17  and  C_20
REMARK    2  A    between atoms: C_20  and  C_21
REMARK    3  A    between atoms: C_21  and  O_22
REMARK    4  A    between atoms: C_21  and  C_24
REMARK    5  A    between atoms: C_24  and  O_25
REMARK    6  A    between atoms: C_24  and  C_27
REMARK    7  A    between atoms: C_27  and  O_28
REMARK    8  A    between atoms: C_27  and  C_30
REMARK    9  A    between atoms: C_30  and  O_31
REMARK                            x       y       z     vdW  Elec       q    Type
REMARK                         _______ _______ _______ _____ _____    ______ ____
ROOT
ATOM      1  C   UNL     1     -43.879 -18.864 -25.773  0.00  0.00    +0.000 C 
ATOM      2  C   UNL     1     -44.193 -18.606 -24.339  0.00  0.00    +0.000 A 
ATOM      3  C   UNL     1     -43.885 -19.544 -23.339  0.00  0.00    +0.000 A 
ATOM      4  C   UNL     1     -44.197 -19.266 -22.006  0.00  0.00    +0.000 A 
ATOM      5  C   UNL     1     -44.818 -18.058 -21.640  0.00  0.00    +0.000 A 
ATOM      6  C   UNL     1     -45.117 -17.118 -22.660  0.00  0.00    +0.000 A 
ATOM      7  C   UNL     1     -44.806 -17.399 -23.992  0.00  0.00    +0.000 A 
ATOM      8  C   UNL     1     -45.718 -15.902 -22.348  0.00  0.00    +0.000 A 
ATOM      9  C   UNL     1     -46.023 -15.606 -21.026  0.00  0.00    +0.000 A 
ATOM     10  C   UNL     1     -46.622 -14.410 -20.627  0.00  0.00    +0.000 A 
ATOM     11  O   UNL     1     -46.923 -13.524 -21.471  0.00  0.00    +0.000 OA
ATOM     12  N   UNL     1     -46.882 -14.197 -19.310  0.00  0.00    +0.000 N 
ATOM     13  C   UNL     1     -46.578 -15.117 -18.353  0.00  0.00    +0.000 A 
ATOM     14  O   UNL     1     -46.839 -14.871 -17.147  0.00  0.00    +0.000 OA
ATOM     15  N   UNL     1     -45.996 -16.299 -18.688  0.00  0.00    +0.000 NA
ATOM     16  C   UNL     1     -45.701 -16.597 -19.982  0.00  0.00    +0.000 A 
ATOM     17  N   UNL     1     -45.127 -17.790 -20.325  0.00  0.00    +0.000 N 
ATOM     18  C   UNL     1     -43.229 -20.843 -23.663  0.00  0.00    +0.000 C 
ATOM     19  H   UNL     1     -47.304 -13.350 -19.039  0.00  0.00    +0.000 HD
ENDROOT
BRANCH  17  20
ATOM     20  C   UNL     1     -44.823 -18.762 -19.267  0.00  0.00    +0.000 C 
BRANCH  20  21
ATOM     21  C   UNL     1     -43.338 -18.762 -18.907  0.00  0.00    +0.000 C 
BRANCH  21  22
ATOM     22  O   UNL     1     -43.063 -17.600 -18.184  0.00  0.00    +0.000 OA
ATOM     23  H   UNL     1     -42.122 -17.380 -18.270  0.00  0.00    +0.000 HD
ENDBRANCH  21  22
BRANCH  21  24
ATOM     24  C   UNL     1     -42.957 -19.997 -18.084  0.00  0.00    +0.000 C 
BRANCH  24  25
ATOM     25  O   UNL     1     -43.887 -21.021 -18.286  0.00  0.00    +0.000 OA
ATOM     26  H   UNL     1     -43.865 -21.298 -19.216  0.00  0.00    +0.000 HD
ENDBRANCH  24  25
BRANCH  24  27
ATOM     27  C   UNL     1     -41.554 -20.495 -18.439  0.00  0.00    +0.000 C 
BRANCH  27  28
ATOM     28  O   UNL     1     -40.951 -19.645 -19.369  0.00  0.00    +0.000 OA
ATOM     29  H   UNL     1     -41.513 -18.866 -19.507  0.00  0.00    +0.000 HD
ENDBRANCH  27  28
BRANCH  27  30
ATOM     30  C   UNL     1     -41.622 -21.908 -18.992  0.00  0.00    +0.000 C 
BRANCH  30  31
ATOM     31  O   UNL     1     -41.827 -21.868 -20.372  0.00  0.00    +0.000 OA
ATOM     32  H   UNL     1     -41.602 -20.985 -20.705  0.00  0.00    +0.000 HD
ENDBRANCH  30  31
ENDBRANCH  27  30
ENDBRANCH  24  27
ENDBRANCH  21  24
ENDBRANCH  20  21
ENDBRANCH  17  20
TORSDOF 9
ENDMDL
MODEL 3
REMARK VINA RESULT:      -5.9     10.370     13.862
REMARK  Name = ZINC000004878453 PubChem-92237773
REMARK  9 active torsions:
REMARK  status: ('A' for Active; 'I' for Inactive)
REMARK    1  A    between atoms: N_17  and  C_20
REMARK    2  A    between atoms: C_20  and  C_21
REMARK    3  A    between atoms: C_21  and  O_22
REMARK    4  A    between atoms: C_21  and  C_24
REMARK    5  A    between atoms: C_24  and  O_25
REMARK    6  A    between atoms: C_24  and  C_27
REMARK    7  A    between atoms: C_27  and  O_28
REMARK    8  A    between atoms: C_27  and  C_30
REMARK    9  A    between atoms: C_30  and  O_31
REMARK                            x       y       z     vdW  Elec       q    Type
REMARK                         _______ _______ _______ _____ _____    ______ ____
ROOT
ATOM      1  C   UNL     1     -45.819 -12.251 -25.411  0.00  0.00    +0.000 C 
ATOM      2  C   UNL     1     -45.729 -13.626 -24.842  0.00  0.00    +0.000 A 
ATOM      3  C   UNL     1     -45.587 -14.755 -25.666  0.00  0.00    +0.000 A 
ATOM      4  C   UNL     1     -45.508 -16.027 -25.094  0.00  0.00    +0.000 A 
ATOM      5  C   UNL     1     -45.570 -16.204 -23.700  0.00  0.00    +0.000 A 
ATOM      6  C   UNL     1     -45.708 -15.053 -22.880  0.00  0.00    +0.000 A 
ATOM      7  C   UNL     1     -45.788 -13.783 -23.455  0.00  0.00    +0.000 A 
ATOM      8  C   UNL     1     -45.760 -15.174 -21.494  0.00  0.00    +0.000 A 
ATOM      9  C   UNL     1     -45.671 -16.431 -20.911  0.00  0.00    +0.000 A 
ATOM     10  C   UNL     1     -45.710 -16.640 -19.531  0.00  0.00    +0.000 A 
ATOM     11  O   UNL     1     -45.835 -15.672 -18.734  0.00  0.00    +0.000 OA
ATOM     12  N   UNL     1     -45.611 -17.904 -19.041  0.00  0.00    +0.000 N 
ATOM     13  C   UNL     1     -45.474 -18.988 -19.854  0.00  0.00    +0.000 A 
ATOM     14  O   UNL     1     -45.386 -20.137 -19.350  0.00  0.00    +0.000 OA
ATOM     15  N   UNL     1     -45.432 -18.839 -21.205  0.00  0.00    +0.000 NA
ATOM     16  C   UNL     1     -45.526 -17.612 -21.782  0.00  0.00    +0.000 A 
ATOM     17  N   UNL     1     -45.497 -17.460 -23.141  0.00  0.00    +0.000 N 
ATOM     18  C   UNL     1     -45.517 -14.633 -27.150  0.00  0.00    +0.000 C 
ATOM     19  H   UNL     1     -45.640 -18.040 -18.066  0.00  0.00    +0.000 HD
ENDROOT
BRANCH  17  20
ATOM     20  C   UNL     1     -45.358 -18.653 -23.986  0.00  0.00    +0.000 C 
BRANCH  20  21
ATOM     21  C   UNL     1     -43.893 -18.975 -24.276  0.00  0.00    +0.000 C 
BRANCH  21  22
ATOM     22  O   UNL     1     -43.445 -19.882 -23.315  0.00  0.00    +0.000 OA
ATOM     23  H   UNL     1     -43.295 -20.746 -23.729  0.00  0.00    +0.000 HD
ENDBRANCH  21  22
BRANCH  21  24
ATOM     24  C   UNL     1     -43.711 -19.562 -25.680  0.00  0.00    +0.000 C 
BRANCH  24  25
ATOM     25  O   UNL     1     -44.886 -19.415 -26.424  0.00  0.00    +0.000 OA
ATOM     26  H   UNL     1     -45.511 -20.117 -26.183  0.00  0.00    +0.000 HD
ENDBRANCH  24  25
BRANCH  24  27
ATOM     27  C   UNL     1     -42.546 -18.899 -26.418  0.00  0.00    +0.000 C 
BRANCH  27  28
ATOM     28  O   UNL     1     -42.888 -17.603 -26.812  0.00  0.00    +0.000 OA
ATOM     29  H   UNL     1     -43.135 -17.604 -27.750  0.00  0.00    +0.000 HD
ENDBRANCH  27  28
BRANCH  27  30
ATOM     30  C   UNL     1     -42.152 -19.725 -27.630  0.00  0.00    +0.000 C 
BRANCH  30  31
ATOM     31  O   UNL     1     -43.030 -19.469 -28.684  0.00  0.00    +0.000 OA
ATOM     32  H   UNL     1     -43.110 -20.262 -29.236  0.00  0.00    +0.000 HD
ENDBRANCH  30  31
ENDBRANCH  27  30
ENDBRANCH  24  27
ENDBRANCH  21  24
ENDBRANCH  20  21
ENDBRANCH  17  20
TORSDOF 9
ENDMDL
