MODEL 1
REMARK VINA RESULT:      -7.2      0.000      0.000
REMARK  Name = ZINC000031810529
REMARK  1 active torsions:
REMARK  status: ('A' for Active; 'I' for Inactive)
REMARK    1  A    between atoms: C_7  and  C_24
REMARK                            x       y       z     vdW  Elec       q    Type
REMARK                         _______ _______ _______ _____ _____    ______ ____
ROOT
ATOM      1  C   UNL     1     -47.403  -4.529 -34.494  0.00  0.00    +0.000 C 
ATOM      2  C   UNL     1     -46.655  -5.656 -33.871  0.00  0.00    +0.000 A 
ATOM      3  N   UNL     1     -46.479  -6.848 -34.468  0.00  0.00    +0.000 NA
ATOM      4  N   UNL     1     -45.770  -7.605 -33.646  0.00  0.00    +0.000 N 
ATOM      5  C   UNL     1     -45.455  -6.903 -32.532  0.00  0.00    +0.000 A 
ATOM      6  C   UNL     1     -46.031  -5.638 -32.635  0.00  0.00    +0.000 A 
ATOM      7  C   UNL     1     -45.976  -4.439 -31.728  0.00  0.00    +0.000 C 
ATOM      8  S   UNL     1     -45.870  -4.827 -29.953  0.00  0.00    +0.000 S 
ATOM      9  C   UNL     1     -44.146  -5.358 -30.083  0.00  0.00    +0.000 C 
ATOM     10  C   UNL     1     -44.083  -6.821 -30.319  0.00  0.00    +0.000 C 
ATOM     11  O   UNL     1     -43.495  -7.539 -29.469  0.00  0.00    +0.000 OA
ATOM     12  N   UNL     1     -44.627  -7.442 -31.487  0.00  0.00    +0.000 N 
ATOM     13  H   UNL     1     -44.398  -8.393 -31.593  0.00  0.00    +0.000 HD
ATOM     14  C   UNL     1     -45.369  -8.941 -33.980  0.00  0.00    +0.000 A 
ATOM     15  N   UNL     1     -44.975  -9.239 -35.255  0.00  0.00    +0.000 NA
ATOM     16  C   UNL     1     -44.614 -10.512 -35.616  0.00  0.00    +0.000 A 
ATOM     17  N   UNL     1     -44.653 -11.528 -34.702  0.00  0.00    +0.000 NA
ATOM     18  C   UNL     1     -45.057 -11.239 -33.443  0.00  0.00    +0.000 A 
ATOM     19  N   UNL     1     -45.214 -12.106 -32.436  0.00  0.00    +0.000 N 
ATOM     20  C   UNL     1     -45.690 -11.313 -31.438  0.00  0.00    +0.000 A 
ATOM     21  N   UNL     1     -45.835 -10.007 -31.792  0.00  0.00    +0.000 NA
ATOM     22  C   UNL     1     -45.415  -9.993 -33.065  0.00  0.00    +0.000 A 
ATOM     23  H   UNL     1     -45.030 -13.073 -32.421  0.00  0.00    +0.000 HD
ENDROOT
BRANCH   7  24
ATOM     24  C   UNL     1     -45.027  -3.360 -32.172  0.00  0.00    +0.000 A 
ATOM     25  C   UNL     1     -43.975  -3.692 -33.034  0.00  0.00    +0.000 A 
ATOM     26  C   UNL     1     -43.085  -2.707 -33.472  0.00  0.00    +0.000 A 
ATOM     27  C   UNL     1     -43.243  -1.383 -33.053  0.00  0.00    +0.000 A 
ATOM     28  F   UNL     1     -42.377  -0.434 -33.482  0.00  0.00    +0.000 F 
ATOM     29  C   UNL     1     -44.295  -1.043 -32.195  0.00  0.00    +0.000 A 
ATOM     30  F   UNL     1     -44.457   0.239 -31.786  0.00  0.00    +0.000 F 
ATOM     31  C   UNL     1     -45.185  -2.027 -31.758  0.00  0.00    +0.000 A 
ENDBRANCH   7  24
TORSDOF 1
ENDMDL
MODEL 2
REMARK VINA RESULT:      -6.8      2.830      3.592
REMARK  Name = ZINC000031810529
REMARK  1 active torsions:
REMARK  status: ('A' for Active; 'I' for Inactive)
REMARK    1  A    between atoms: C_7  and  C_24
REMARK                            x       y       z     vdW  Elec       q    Type
REMARK                         _______ _______ _______ _____ _____    ______ ____
ROOT
ATOM      1  C   UNL     1     -43.007  -5.835 -34.954  0.00  0.00    +0.000 C 
ATOM      2  C   UNL     1     -43.761  -6.066 -33.690  0.00  0.00    +0.000 A 
ATOM      3  N   UNL     1     -43.639  -7.181 -32.949  0.00  0.00    +0.000 NA
ATOM      4  N   UNL     1     -44.437  -7.053 -31.901  0.00  0.00    +0.000 N 
ATOM      5  C   UNL     1     -45.053  -5.849 -31.938  0.00  0.00    +0.000 A 
ATOM      6  C   UNL     1     -44.653  -5.188 -33.099  0.00  0.00    +0.000 A 
ATOM      7  C   UNL     1     -44.977  -3.819 -33.630  0.00  0.00    +0.000 C 
ATOM      8  S   UNL     1     -46.649  -3.220 -33.233  0.00  0.00    +0.000 S 
ATOM      9  C   UNL     1     -46.228  -2.929 -31.498  0.00  0.00    +0.000 C 
ATOM     10  C   UNL     1     -46.558  -4.128 -30.689  0.00  0.00    +0.000 C 
ATOM     11  O   UNL     1     -47.401  -4.010 -29.763  0.00  0.00    +0.000 OA
ATOM     12  N   UNL     1     -45.930  -5.396 -30.892  0.00  0.00    +0.000 N 
ATOM     13  H   UNL     1     -46.130  -6.070 -30.203  0.00  0.00    +0.000 HD
ATOM     14  C   UNL     1     -44.533  -8.053 -30.877  0.00  0.00    +0.000 A 
ATOM     15  N   UNL     1     -43.411  -8.716 -30.460  0.00  0.00    +0.000 NA
ATOM     16  C   UNL     1     -43.472  -9.698 -29.505  0.00  0.00    +0.000 A 
ATOM     17  N   UNL     1     -44.670 -10.053 -28.951  0.00  0.00    +0.000 NA
ATOM     18  C   UNL     1     -45.783  -9.408 -29.372  0.00  0.00    +0.000 A 
ATOM     19  N   UNL     1     -47.042  -9.656 -28.991  0.00  0.00    +0.000 N 
ATOM     20  C   UNL     1     -47.756  -8.786 -29.755  0.00  0.00    +0.000 A 
ATOM     21  N   UNL     1     -46.993  -8.025 -30.586  0.00  0.00    +0.000 NA
ATOM     22  C   UNL     1     -45.748  -8.438 -30.310  0.00  0.00    +0.000 A 
ATOM     23  H   UNL     1     -47.368 -10.304 -28.326  0.00  0.00    +0.000 HD
ENDROOT
BRANCH   7  24
ATOM     24  C   UNL     1     -43.897  -2.792 -33.419  0.00  0.00    +0.000 A 
ATOM     25  C   UNL     1     -44.220  -1.435 -33.526  0.00  0.00    +0.000 A 
ATOM     26  C   UNL     1     -43.240  -0.459 -33.324  0.00  0.00    +0.000 A 
ATOM     27  C   UNL     1     -41.931  -0.836 -33.010  0.00  0.00    +0.000 A 
ATOM     28  F   UNL     1     -40.986   0.116 -32.814  0.00  0.00    +0.000 F 
ATOM     29  C   UNL     1     -41.602  -2.191 -32.897  0.00  0.00    +0.000 A 
ATOM     30  F   UNL     1     -40.335  -2.564 -32.591  0.00  0.00    +0.000 F 
ATOM     31  C   UNL     1     -42.582  -3.166 -33.098  0.00  0.00    +0.000 A 
ENDBRANCH   7  24
TORSDOF 1
ENDMDL
MODEL 3
REMARK VINA RESULT:      -6.8      4.746      7.454
REMARK  Name = ZINC000031810529
REMARK  1 active torsions:
REMARK  status: ('A' for Active; 'I' for Inactive)
REMARK    1  A    between atoms: C_7  and  C_24
REMARK                            x       y       z     vdW  Elec       q    Type
REMARK                         _______ _______ _______ _____ _____    ______ ____
ROOT
ATOM      1  C   UNL     1     -42.456  -6.789 -27.524  0.00  0.00    +0.000 C 
ATOM      2  C   UNL     1     -42.977  -6.144 -28.762  0.00  0.00    +0.000 A 
ATOM      3  N   UNL     1     -42.194  -5.778 -29.792  0.00  0.00    +0.000 NA
ATOM      4  N   UNL     1     -42.975  -5.249 -30.720  0.00  0.00    +0.000 N 
ATOM      5  C   UNL     1     -44.266  -5.300 -30.315  0.00  0.00    +0.000 A 
ATOM      6  C   UNL     1     -44.303  -5.857 -29.038  0.00  0.00    +0.000 A 
ATOM      7  C   UNL     1     -45.453  -6.194 -28.129  0.00  0.00    +0.000 C 
ATOM      8  S   UNL     1     -46.883  -5.076 -28.257  0.00  0.00    +0.000 S 
ATOM      9  C   UNL     1     -47.379  -5.751 -29.860  0.00  0.00    +0.000 C 
ATOM     10  C   UNL     1     -46.768  -4.958 -30.954  0.00  0.00    +0.000 C 
ATOM     11  O   UNL     1     -47.532  -4.374 -31.766  0.00  0.00    +0.000 OA
ATOM     12  N   UNL     1     -45.355  -4.862 -31.147  0.00  0.00    +0.000 N 
ATOM     13  H   UNL     1     -45.081  -4.425 -31.985  0.00  0.00    +0.000 HD
ATOM     14  C   UNL     1     -42.471  -4.777 -31.976  0.00  0.00    +0.000 A 
ATOM     15  N   UNL     1     -41.479  -5.465 -32.619  0.00  0.00    +0.000 NA
ATOM     16  C   UNL     1     -40.953  -5.025 -33.806  0.00  0.00    +0.000 A 
ATOM     17  N   UNL     1     -41.402  -3.867 -34.375  0.00  0.00    +0.000 NA
ATOM     18  C   UNL     1     -42.374  -3.176 -33.735  0.00  0.00    +0.000 A 
ATOM     19  N   UNL     1     -42.895  -2.000 -34.106  0.00  0.00    +0.000 N 
ATOM     20  C   UNL     1     -43.764  -1.732 -33.093  0.00  0.00    +0.000 A 
ATOM     21  N   UNL     1     -43.792  -2.686 -32.123  0.00  0.00    +0.000 NA
ATOM     22  C   UNL     1     -42.907  -3.590 -32.566  0.00  0.00    +0.000 A 
ATOM     23  H   UNL     1     -42.699  -1.465 -34.908  0.00  0.00    +0.000 HD
ENDROOT
BRANCH   7  24
ATOM     24  C   UNL     1     -45.822  -7.653 -28.099  0.00  0.00    +0.000 A 
ATOM     25  C   UNL     1     -46.581  -8.139 -27.028  0.00  0.00    +0.000 A 
ATOM     26  C   UNL     1     -46.948  -9.487 -26.980  0.00  0.00    +0.000 A 
ATOM     27  C   UNL     1     -46.561 -10.356 -28.003  0.00  0.00    +0.000 A 
ATOM     28  F   UNL     1     -46.921 -11.661 -27.950  0.00  0.00    +0.000 F 
ATOM     29  C   UNL     1     -45.805  -9.875 -29.080  0.00  0.00    +0.000 A 
ATOM     30  F   UNL     1     -45.428 -10.711 -30.077  0.00  0.00    +0.000 F 
ATOM     31  C   UNL     1     -45.439  -8.528 -29.128  0.00  0.00    +0.000 A 
ENDBRANCH   7  24
TORSDOF 1
ENDMDL
