MODEL 1
REMARK VINA RESULT:      -6.1      0.000      0.000
REMARK  Name = ZINC000270349038 PubChem-125135852
REMARK  4 active torsions:
REMARK  status: ('A' for Active; 'I' for Inactive)
REMARK    1  A    between atoms: C_4  and  C_5
REMARK    2  A    between atoms: C_5  and  N_19
REMARK    3  A    between atoms: C_6  and  C_7
REMARK    4  A    between atoms: C_11  and  C_12
REMARK                            x       y       z     vdW  Elec       q    Type
REMARK                         _______ _______ _______ _____ _____    ______ ____
ROOT
ATOM      1  C   UNL     1     -46.287  -3.749 -32.019  0.00  0.00    +0.000 C 
ATOM      2  C   UNL     1     -47.303  -4.336 -33.007  0.00  0.00    +0.000 C 
ATOM      3  C   UNL     1     -46.452  -5.018 -34.001  0.00  0.00    +0.000 C 
ATOM      4  C   UNL     1     -44.035  -5.681 -34.382  0.00  0.00    +0.000 C 
ATOM      5  C   UNL     1     -44.884  -4.203 -32.464  0.00  0.00    +0.000 C 
ATOM      6  N   UNL     1     -45.074  -4.914 -33.714  0.00  0.00    +0.000 N 
ATOM      7  O   UNL     1     -46.903  -5.642 -34.997  0.00  0.00    +0.000 OA
ENDROOT
BRANCH   5   8
ATOM      8  C   UNL     1     -43.970  -3.029 -32.643  0.00  0.00    +0.000 A 
ATOM      9  C   UNL     1     -42.616  -3.165 -32.322  0.00  0.00    +0.000 A 
ATOM     10  C   UNL     1     -41.744  -2.084 -32.480  0.00  0.00    +0.000 A 
ATOM     11  C   UNL     1     -42.225  -0.861 -32.959  0.00  0.00    +0.000 A 
ATOM     12  C   UNL     1     -43.577  -0.720 -33.281  0.00  0.00    +0.000 A 
ATOM     13  C   UNL     1     -44.450  -1.801 -33.123  0.00  0.00    +0.000 A 
ATOM     14  F   UNL     1     -41.379   0.185 -33.112  0.00  0.00    +0.000 F 
ENDBRANCH   5   8
BRANCH   1  15
ATOM     15  C   UNL     1     -46.573  -4.210 -30.628  0.00  0.00    +0.000 C 
ATOM     16  N   UNL     1     -46.595  -5.607 -30.324  0.00  0.00    +0.000 NA
ATOM     17  O   UNL     1     -46.794  -3.358 -29.728  0.00  0.00    +0.000 OA
BRANCH  16  18
ATOM     18  C   UNL     1     -46.865  -6.100 -28.985  0.00  0.00    +0.000 C 
BRANCH  18  22
ATOM     19  C   UNL     1     -46.455 -10.729 -30.560  0.00  0.00    +0.000 C 
ATOM     20  C   UNL     1     -46.613  -9.557 -29.659  0.00  0.00    +0.000 A 
ATOM     21  C   UNL     1     -46.775  -9.602 -28.292  0.00  0.00    +0.000 A 
ATOM     22  C   UNL     1     -46.778  -7.585 -28.976  0.00  0.00    +0.000 A 
ATOM     23  N   UNL     1     -46.883  -8.329 -27.856  0.00  0.00    +0.000 NA
ATOM     24  O   UNL     1     -46.620  -8.311 -30.056  0.00  0.00    +0.000 OA
ENDBRANCH  18  22
ENDBRANCH  16  18
ENDBRANCH   1  15
TORSDOF 4
ENDMDL
MODEL 2
REMARK VINA RESULT:      -6.1      4.259      7.977
REMARK  Name = ZINC000270349038 PubChem-125135852
REMARK  4 active torsions:
REMARK  status: ('A' for Active; 'I' for Inactive)
REMARK    1  A    between atoms: C_4  and  C_5
REMARK    2  A    between atoms: C_5  and  N_19
REMARK    3  A    between atoms: C_6  and  C_7
REMARK    4  A    between atoms: C_11  and  C_12
REMARK                            x       y       z     vdW  Elec       q    Type
REMARK                         _______ _______ _______ _____ _____    ______ ____
ROOT
ATOM      1  C   UNL     1     -45.850  -5.675 -27.048  0.00  0.00    +0.000 C 
ATOM      2  C   UNL     1     -44.914  -6.866 -26.800  0.00  0.00    +0.000 C 
ATOM      3  C   UNL     1     -45.508  -7.521 -25.619  0.00  0.00    +0.000 C 
ATOM      4  C   UNL     1     -47.584  -7.431 -24.168  0.00  0.00    +0.000 C 
ATOM      5  C   UNL     1     -46.998  -5.761 -26.025  0.00  0.00    +0.000 C 
ATOM      6  N   UNL     1     -46.673  -6.875 -25.154  0.00  0.00    +0.000 N 
ATOM      7  O   UNL     1     -45.036  -8.559 -25.084  0.00  0.00    +0.000 OA
ENDROOT
BRANCH   5   8
ATOM      8  C   UNL     1     -47.121  -4.485 -25.248  0.00  0.00    +0.000 A 
ATOM      9  C   UNL     1     -46.981  -4.519 -23.858  0.00  0.00    +0.000 A 
ATOM     10  C   UNL     1     -47.092  -3.342 -23.110  0.00  0.00    +0.000 A 
ATOM     11  C   UNL     1     -47.344  -2.126 -23.754  0.00  0.00    +0.000 A 
ATOM     12  C   UNL     1     -47.486  -2.087 -25.144  0.00  0.00    +0.000 A 
ATOM     13  C   UNL     1     -47.375  -3.264 -25.891  0.00  0.00    +0.000 A 
ATOM     14  F   UNL     1     -47.452  -0.987 -23.030  0.00  0.00    +0.000 F 
ENDBRANCH   5   8
BRANCH   1  15
ATOM     15  C   UNL     1     -46.383  -5.703 -28.442  0.00  0.00    +0.000 C 
ATOM     16  N   UNL     1     -47.070  -4.566 -28.971  0.00  0.00    +0.000 NA
ATOM     17  O   UNL     1     -46.223  -6.736 -29.145  0.00  0.00    +0.000 OA
BRANCH  16  18
ATOM     18  C   UNL     1     -47.602  -4.548 -30.323  0.00  0.00    +0.000 C 
BRANCH  18  22
ATOM     19  C   UNL     1     -44.463  -1.157 -31.976  0.00  0.00    +0.000 C 
ATOM     20  C   UNL     1     -45.331  -2.363 -31.916  0.00  0.00    +0.000 A 
ATOM     21  C   UNL     1     -45.515  -3.280 -32.928  0.00  0.00    +0.000 A 
ATOM     22  C   UNL     1     -46.661  -3.820 -31.217  0.00  0.00    +0.000 A 
ATOM     23  N   UNL     1     -46.374  -4.216 -32.473  0.00  0.00    +0.000 NA
ATOM     24  O   UNL     1     -46.045  -2.714 -30.878  0.00  0.00    +0.000 OA
ENDBRANCH  18  22
ENDBRANCH  16  18
ENDBRANCH   1  15
TORSDOF 4
ENDMDL
MODEL 3
REMARK VINA RESULT:      -6.1     13.288     16.570
REMARK  Name = ZINC000270349038 PubChem-125135852
REMARK  4 active torsions:
REMARK  status: ('A' for Active; 'I' for Inactive)
REMARK    1  A    between atoms: C_4  and  C_5
REMARK    2  A    between atoms: C_5  and  N_19
REMARK    3  A    between atoms: C_6  and  C_7
REMARK    4  A    between atoms: C_11  and  C_12
REMARK                            x       y       z     vdW  Elec       q    Type
REMARK                         _______ _______ _______ _____ _____    ______ ____
ROOT
ATOM      1  C   UNL     1     -45.796 -17.089 -23.909  0.00  0.00    +0.000 C 
ATOM      2  C   UNL     1     -45.714 -16.147 -25.117  0.00  0.00    +0.000 C 
ATOM      3  C   UNL     1     -44.770 -15.105 -24.669  0.00  0.00    +0.000 C 
ATOM      4  C   UNL     1     -43.173 -14.598 -22.767  0.00  0.00    +0.000 C 
ATOM      5  C   UNL     1     -44.812 -16.571 -22.843  0.00  0.00    +0.000 C 
ATOM      6  N   UNL     1     -44.283 -15.324 -23.363  0.00  0.00    +0.000 N 
ATOM      7  O   UNL     1     -44.421 -14.126 -25.379  0.00  0.00    +0.000 OA
ENDROOT
BRANCH   5   8
ATOM      8  C   UNL     1     -45.505 -16.359 -21.531  0.00  0.00    +0.000 A 
ATOM      9  C   UNL     1     -45.549 -17.407 -20.608  0.00  0.00    +0.000 A 
ATOM     10  C   UNL     1     -46.190 -17.235 -19.377  0.00  0.00    +0.000 A 
ATOM     11  C   UNL     1     -46.789 -16.010 -19.066  0.00  0.00    +0.000 A 
ATOM     12  C   UNL     1     -46.748 -14.958 -19.986  0.00  0.00    +0.000 A 
ATOM     13  C   UNL     1     -46.108 -15.131 -21.217  0.00  0.00    +0.000 A 
ATOM     14  F   UNL     1     -47.410 -15.843 -17.874  0.00  0.00    +0.000 F 
ENDBRANCH   5   8
BRANCH   1  15
ATOM     15  C   UNL     1     -45.454 -18.488 -24.305  0.00  0.00    +0.000 C 
ATOM     16  N   UNL     1     -44.229 -19.080 -23.867  0.00  0.00    +0.000 NA
ATOM     17  O   UNL     1     -46.256 -19.139 -25.026  0.00  0.00    +0.000 OA
BRANCH  16  18
ATOM     18  C   UNL     1     -43.858 -20.438 -24.224  0.00  0.00    +0.000 C 
BRANCH  18  22
ATOM     19  C   UNL     1     -41.155 -20.910 -20.157  0.00  0.00    +0.000 C 
ATOM     20  C   UNL     1     -41.687 -21.130 -21.528  0.00  0.00    +0.000 A 
ATOM     21  C   UNL     1     -41.229 -22.060 -22.435  0.00  0.00    +0.000 A 
ATOM     22  C   UNL     1     -42.842 -20.944 -23.263  0.00  0.00    +0.000 A 
ATOM     23  N   UNL     1     -41.975 -21.935 -23.553  0.00  0.00    +0.000 NA
ATOM     24  O   UNL     1     -42.674 -20.456 -22.058  0.00  0.00    +0.000 OA
ENDBRANCH  18  22
ENDBRANCH  16  18
ENDBRANCH   1  15
TORSDOF 4
ENDMDL
