MODEL 1
REMARK VINA RESULT:      -7.4      0.000      0.000
REMARK  Name = ZINC000100261004
REMARK  3 active torsions:
REMARK  status: ('A' for Active; 'I' for Inactive)
REMARK    1  A    between atoms: C_1  and  C_13
REMARK    2  A    between atoms: C_7  and  C_23
REMARK    3  A    between atoms: C_14  and  O_15
REMARK                            x       y       z     vdW  Elec       q    Type
REMARK                         _______ _______ _______ _____ _____    ______ ____
ROOT
ATOM      1  C   UNL     1     -45.646  -7.091 -33.959  0.00  0.00    +0.000 C 
ATOM      2  N   UNL     1     -45.218  -8.074 -34.694  0.00  0.00    +0.000 NA
ATOM      3  N   UNL     1     -45.639  -7.936 -36.023  0.00  0.00    +0.000 N 
ATOM      4  C   UNL     1     -46.421  -6.757 -36.073  0.00  0.00    +0.000 C 
ATOM      5  O   UNL     1     -46.977  -6.318 -37.114  0.00  0.00    +0.000 OA
ATOM      6  C   UNL     1     -46.438  -6.139 -34.764  0.00  0.00    +0.000 C 
ATOM      7  C   UNL     1     -46.993  -4.957 -34.470  0.00  0.00    +0.000 C 
ATOM      8  H   UNL     1     -45.433  -8.539 -36.774  0.00  0.00    +0.000 HD
ENDROOT
BRANCH   1  13
ATOM      9  C   UNL     1     -47.411  -8.202 -29.470  0.00  0.00    +0.000 C 
ATOM     10  N   UNL     1     -46.343  -7.640 -30.299  0.00  0.00    +0.000 N 
ATOM     11  C   UNL     1     -46.486  -7.657 -31.661  0.00  0.00    +0.000 A 
ATOM     12  O   UNL     1     -47.513  -8.176 -32.181  0.00  0.00    +0.000 OA
ATOM     13  C   UNL     1     -45.489  -7.102 -32.490  0.00  0.00    +0.000 A 
ATOM     14  C   UNL     1     -44.329  -6.576 -31.908  0.00  0.00    +0.000 A 
ATOM     15  C   UNL     1     -44.190  -6.573 -30.516  0.00  0.00    +0.000 A 
ATOM     16  C   UNL     1     -43.043  -6.035 -29.916  0.00  0.00    +0.000 A 
ATOM     17  C   UNL     1     -42.913  -6.026 -28.526  0.00  0.00    +0.000 A 
ATOM     18  C   UNL     1     -43.927  -6.552 -27.725  0.00  0.00    +0.000 A 
ATOM     19  C   UNL     1     -45.073  -7.090 -28.313  0.00  0.00    +0.000 A 
ATOM     20  C   UNL     1     -45.223  -7.109 -29.712  0.00  0.00    +0.000 A 
BRANCH  14  21
ATOM     21  O   UNL     1     -43.323  -6.041 -32.710  0.00  0.00    +0.000 OA
ATOM     22  H   UNL     1     -43.426  -6.025 -33.642  0.00  0.00    +0.000 HD
ENDBRANCH  14  21
ENDBRANCH   1  13
BRANCH   7  23
ATOM     23  C   UNL     1     -46.838  -4.213 -33.211  0.00  0.00    +0.000 A 
ATOM     24  C   UNL     1     -47.455  -4.472 -31.989  0.00  0.00    +0.000 A 
ATOM     25  N   UNL     1     -46.986  -3.631 -31.033  0.00  0.00    +0.000 N 
ATOM     26  C   UNL     1     -46.068  -2.869 -31.653  0.00  0.00    +0.000 A 
ATOM     27  C   UNL     1     -45.298  -1.860 -31.077  0.00  0.00    +0.000 A 
ATOM     28  C   UNL     1     -44.376  -1.190 -31.903  0.00  0.00    +0.000 A 
ATOM     29  C   UNL     1     -44.244  -1.541 -33.264  0.00  0.00    +0.000 A 
ATOM     30  C   UNL     1     -45.034  -2.564 -33.817  0.00  0.00    +0.000 A 
ATOM     31  C   UNL     1     -45.938  -3.205 -32.973  0.00  0.00    +0.000 A 
ATOM     32  H   UNL     1     -47.261  -3.587 -30.089  0.00  0.00    +0.000 HD
ENDBRANCH   7  23
TORSDOF 3
ENDMDL
MODEL 2
REMARK VINA RESULT:      -7.2      0.691      2.200
REMARK  Name = ZINC000100261004
REMARK  3 active torsions:
REMARK  status: ('A' for Active; 'I' for Inactive)
REMARK    1  A    between atoms: C_1  and  C_13
REMARK    2  A    between atoms: C_7  and  C_23
REMARK    3  A    between atoms: C_14  and  O_15
REMARK                            x       y       z     vdW  Elec       q    Type
REMARK                         _______ _______ _______ _____ _____    ______ ____
ROOT
ATOM      1  C   UNL     1     -45.551  -6.983 -33.918  0.00  0.00    +0.000 C 
ATOM      2  N   UNL     1     -45.119  -7.972 -34.641  0.00  0.00    +0.000 NA
ATOM      3  N   UNL     1     -45.595  -7.886 -35.956  0.00  0.00    +0.000 N 
ATOM      4  C   UNL     1     -46.419  -6.736 -36.007  0.00  0.00    +0.000 C 
ATOM      5  O   UNL     1     -47.030  -6.346 -37.037  0.00  0.00    +0.000 OA
ATOM      6  C   UNL     1     -46.406  -6.082 -34.716  0.00  0.00    +0.000 C 
ATOM      7  C   UNL     1     -46.989  -4.911 -34.432  0.00  0.00    +0.000 C 
ATOM      8  H   UNL     1     -45.398  -8.503 -36.698  0.00  0.00    +0.000 HD
ENDROOT
BRANCH   1  13
ATOM      9  C   UNL     1     -42.853  -5.573 -30.016  0.00  0.00    +0.000 C 
ATOM     10  N   UNL     1     -44.027  -6.264 -30.550  0.00  0.00    +0.000 N 
ATOM     11  C   UNL     1     -44.231  -6.271 -31.904  0.00  0.00    +0.000 A 
ATOM     12  O   UNL     1     -43.427  -5.663 -32.666  0.00  0.00    +0.000 OA
ATOM     13  C   UNL     1     -45.337  -6.947 -32.456  0.00  0.00    +0.000 A 
ATOM     14  C   UNL     1     -46.253  -7.574 -31.601  0.00  0.00    +0.000 A 
ATOM     15  C   UNL     1     -46.041  -7.553 -30.219  0.00  0.00    +0.000 A 
ATOM     16  C   UNL     1     -46.938  -8.189 -29.350  0.00  0.00    +0.000 A 
ATOM     17  C   UNL     1     -46.716  -8.172 -27.971  0.00  0.00    +0.000 A 
ATOM     18  C   UNL     1     -45.596  -7.523 -27.451  0.00  0.00    +0.000 A 
ATOM     19  C   UNL     1     -44.696  -6.886 -28.308  0.00  0.00    +0.000 A 
ATOM     20  C   UNL     1     -44.903  -6.890 -29.700  0.00  0.00    +0.000 A 
BRANCH  14  21
ATOM     21  O   UNL     1     -47.365  -8.232 -32.125  0.00  0.00    +0.000 OA
ATOM     22  H   UNL     1     -48.209  -8.106 -31.737  0.00  0.00    +0.000 HD
ENDBRANCH  14  21
ENDBRANCH   1  13
BRANCH   7  23
ATOM     23  C   UNL     1     -46.811  -4.126 -33.201  0.00  0.00    +0.000 A 
ATOM     24  C   UNL     1     -47.420  -4.334 -31.965  0.00  0.00    +0.000 A 
ATOM     25  N   UNL     1     -46.930  -3.467 -31.044  0.00  0.00    +0.000 N 
ATOM     26  C   UNL     1     -46.007  -2.741 -31.698  0.00  0.00    +0.000 A 
ATOM     27  C   UNL     1     -45.216  -1.724 -31.165  0.00  0.00    +0.000 A 
ATOM     28  C   UNL     1     -44.293  -1.098 -32.021  0.00  0.00    +0.000 A 
ATOM     29  C   UNL     1     -44.179  -1.497 -33.371  0.00  0.00    +0.000 A 
ATOM     30  C   UNL     1     -44.989  -2.527 -33.881  0.00  0.00    +0.000 A 
ATOM     31  C   UNL     1     -45.894  -3.125 -33.006  0.00  0.00    +0.000 A 
ATOM     32  H   UNL     1     -47.195  -3.386 -30.099  0.00  0.00    +0.000 HD
ENDBRANCH   7  23
TORSDOF 3
ENDMDL
MODEL 3
REMARK VINA RESULT:      -7.2     12.065     15.793
REMARK  Name = ZINC000100261004
REMARK  3 active torsions:
REMARK  status: ('A' for Active; 'I' for Inactive)
REMARK    1  A    between atoms: C_1  and  C_13
REMARK    2  A    between atoms: C_7  and  C_23
REMARK    3  A    between atoms: C_14  and  O_15
REMARK                            x       y       z     vdW  Elec       q    Type
REMARK                         _______ _______ _______ _____ _____    ______ ____
ROOT
ATOM      1  C   UNL     1     -45.240 -15.431 -21.182  0.00  0.00    +0.000 C 
ATOM      2  N   UNL     1     -45.601 -14.298 -20.659  0.00  0.00    +0.000 NA
ATOM      3  N   UNL     1     -46.424 -14.493 -19.542  0.00  0.00    +0.000 N 
ATOM      4  C   UNL     1     -46.586 -15.893 -19.406  0.00  0.00    +0.000 C 
ATOM      5  O   UNL     1     -47.277 -16.443 -18.509  0.00  0.00    +0.000 OA
ATOM      6  C   UNL     1     -45.811 -16.564 -20.427  0.00  0.00    +0.000 C 
ATOM      7  C   UNL     1     -45.649 -17.889 -20.534  0.00  0.00    +0.000 C 
ATOM      8  H   UNL     1     -46.813 -13.796 -18.965  0.00  0.00    +0.000 HD
ENDROOT
BRANCH   1  13
ATOM      9  C   UNL     1     -41.015 -15.902 -23.716  0.00  0.00    +0.000 C 
ATOM     10  N   UNL     1     -42.466 -15.718 -23.714  0.00  0.00    +0.000 N 
ATOM     11  C   UNL     1     -43.127 -15.690 -22.515  0.00  0.00    +0.000 A 
ATOM     12  O   UNL     1     -42.486 -15.850 -21.438  0.00  0.00    +0.000 OA
ATOM     13  C   UNL     1     -44.522 -15.490 -22.472  0.00  0.00    +0.000 A 
ATOM     14  C   UNL     1     -45.233 -15.367 -23.673  0.00  0.00    +0.000 A 
ATOM     15  C   UNL     1     -44.549 -15.406 -24.893  0.00  0.00    +0.000 A 
ATOM     16  C   UNL     1     -45.243 -15.267 -26.103  0.00  0.00    +0.000 A 
ATOM     17  C   UNL     1     -44.554 -15.298 -27.317  0.00  0.00    +0.000 A 
ATOM     18  C   UNL     1     -43.170 -15.466 -27.332  0.00  0.00    +0.000 A 
ATOM     19  C   UNL     1     -42.469 -15.605 -26.132  0.00  0.00    +0.000 A 
ATOM     20  C   UNL     1     -43.145 -15.578 -24.897  0.00  0.00    +0.000 A 
BRANCH  14  21
ATOM     21  O   UNL     1     -46.615 -15.187 -23.654  0.00  0.00    +0.000 OA
ATOM     22  H   UNL     1     -47.051 -14.835 -24.405  0.00  0.00    +0.000 HD
ENDBRANCH  14  21
ENDBRANCH   1  13
BRANCH   7  23
ATOM     23  C   UNL     1     -44.701 -18.580 -21.421  0.00  0.00    +0.000 A 
ATOM     24  C   UNL     1     -43.481 -19.158 -21.077  0.00  0.00    +0.000 A 
ATOM     25  N   UNL     1     -42.937 -19.791 -22.146  0.00  0.00    +0.000 N 
ATOM     26  C   UNL     1     -43.825 -19.627 -23.143  0.00  0.00    +0.000 A 
ATOM     27  C   UNL     1     -43.715 -20.114 -24.444  0.00  0.00    +0.000 A 
ATOM     28  C   UNL     1     -44.771 -19.843 -25.334  0.00  0.00    +0.000 A 
ATOM     29  C   UNL     1     -45.897 -19.104 -24.909  0.00  0.00    +0.000 A 
ATOM     30  C   UNL     1     -45.980 -18.627 -23.590  0.00  0.00    +0.000 A 
ATOM     31  C   UNL     1     -44.917 -18.911 -22.735  0.00  0.00    +0.000 A 
ATOM     32  H   UNL     1     -42.076 -20.267 -22.185  0.00  0.00    +0.000 HD
ENDBRANCH   7  23
TORSDOF 3
ENDMDL
