MODEL 1
REMARK VINA RESULT:      -5.4      0.000      0.000
REMARK  Name = ZINC000072242259 PubChem-95740472
REMARK  7 active torsions:
REMARK  status: ('A' for Active; 'I' for Inactive)
REMARK    1  A    between atoms: C_2  and  N_19
REMARK    2  A    between atoms: C_3  and  N_19
REMARK    3  A    between atoms: C_5  and  C_6
REMARK    4  A    between atoms: C_5  and  N_19
REMARK    5  A    between atoms: C_6  and  N_20
REMARK    6  A    between atoms: C_7  and  C_8
REMARK    7  A    between atoms: C_12  and  C_13
REMARK                            x       y       z     vdW  Elec       q    Type
REMARK                         _______ _______ _______ _____ _____    ______ ____
ROOT
ATOM      1  C   UNL     1     -46.377  -3.714 -31.992  0.00  0.00    +0.000 C 
ATOM      2  C   UNL     1     -47.383  -4.238 -33.025  0.00  0.00    +0.000 C 
ATOM      3  C   UNL     1     -46.529  -4.930 -34.010  0.00  0.00    +0.000 C 
ATOM      4  C   UNL     1     -44.123  -5.653 -34.348  0.00  0.00    +0.000 C 
ATOM      5  C   UNL     1     -44.975  -4.180 -32.427  0.00  0.00    +0.000 C 
ATOM      6  N   UNL     1     -45.157  -4.872 -33.688  0.00  0.00    +0.000 N 
ATOM      7  O   UNL     1     -46.974  -5.524 -35.026  0.00  0.00    +0.000 OA
ENDROOT
BRANCH   5   8
ATOM      8  C   UNL     1     -44.045  -3.014 -32.580  0.00  0.00    +0.000 A 
ATOM      9  C   UNL     1     -42.704  -3.159 -32.212  0.00  0.00    +0.000 A 
ATOM     10  C   UNL     1     -41.818  -2.086 -32.347  0.00  0.00    +0.000 A 
ATOM     11  C   UNL     1     -42.271  -0.863 -32.850  0.00  0.00    +0.000 A 
ATOM     12  C   UNL     1     -43.611  -0.712 -33.219  0.00  0.00    +0.000 A 
ATOM     13  C   UNL     1     -44.496  -1.785 -33.086  0.00  0.00    +0.000 A 
ATOM     14  F   UNL     1     -41.411   0.176 -32.981  0.00  0.00    +0.000 F 
ENDBRANCH   5   8
BRANCH   1  15
ATOM     15  C   UNL     1     -46.705  -4.239 -30.634  0.00  0.00    +0.000 C 
ATOM     16  N   UNL     1     -45.835  -5.180 -30.000  0.00  0.00    +0.000 NA
ATOM     17  O   UNL     1     -47.756  -3.853 -30.058  0.00  0.00    +0.000 OA
BRANCH  16  18
ATOM     18  C   UNL     1     -46.135  -5.763 -28.702  0.00  0.00    +0.000 C 
BRANCH  18  19
ATOM     19  C   UNL     1     -46.968  -7.037 -28.878  0.00  0.00    +0.000 C 
BRANCH  19  20
ATOM     20  N   UNL     1     -46.486  -7.935 -29.940  0.00  0.00    +0.000 NA
BRANCH  20  22
ATOM     21  C   UNL     1     -47.111  -8.056 -32.291  0.00  0.00    +0.000 C 
ATOM     22  C   UNL     1     -47.572  -8.252 -30.859  0.00  0.00    +0.000 C 
ENDBRANCH  20  22
BRANCH  20  23
ATOM     23  C   UNL     1     -45.998  -9.186 -29.372  0.00  0.00    +0.000 C 
ATOM     24  C   UNL     1     -44.807  -9.688 -30.166  0.00  0.00    +0.000 C 
ENDBRANCH  20  23
ENDBRANCH  19  20
ENDBRANCH  18  19
ENDBRANCH  16  18
ENDBRANCH   1  15
TORSDOF 7
ENDMDL
MODEL 2
REMARK VINA RESULT:      -5.3      1.257      2.061
REMARK  Name = ZINC000072242259 PubChem-95740472
REMARK  7 active torsions:
REMARK  status: ('A' for Active; 'I' for Inactive)
REMARK    1  A    between atoms: C_2  and  N_19
REMARK    2  A    between atoms: C_3  and  N_19
REMARK    3  A    between atoms: C_5  and  C_6
REMARK    4  A    between atoms: C_5  and  N_19
REMARK    5  A    between atoms: C_6  and  N_20
REMARK    6  A    between atoms: C_7  and  C_8
REMARK    7  A    between atoms: C_12  and  C_13
REMARK                            x       y       z     vdW  Elec       q    Type
REMARK                         _______ _______ _______ _____ _____    ______ ____
ROOT
ATOM      1  C   UNL     1     -46.315  -3.731 -31.979  0.00  0.00    +0.000 C 
ATOM      2  C   UNL     1     -47.322  -4.272 -33.003  0.00  0.00    +0.000 C 
ATOM      3  C   UNL     1     -46.467  -4.966 -33.985  0.00  0.00    +0.000 C 
ATOM      4  C   UNL     1     -44.058  -5.674 -34.328  0.00  0.00    +0.000 C 
ATOM      5  C   UNL     1     -44.911  -4.191 -32.416  0.00  0.00    +0.000 C 
ATOM      6  N   UNL     1     -45.094  -4.895 -33.670  0.00  0.00    +0.000 N 
ATOM      7  O   UNL     1     -46.912  -5.572 -34.994  0.00  0.00    +0.000 OA
ENDROOT
BRANCH   5   8
ATOM      8  C   UNL     1     -43.990  -3.019 -32.584  0.00  0.00    +0.000 A 
ATOM      9  C   UNL     1     -42.642  -3.157 -32.239  0.00  0.00    +0.000 A 
ATOM     10  C   UNL     1     -41.765  -2.079 -32.388  0.00  0.00    +0.000 A 
ATOM     11  C   UNL     1     -42.234  -0.859 -32.882  0.00  0.00    +0.000 A 
ATOM     12  C   UNL     1     -43.580  -0.714 -33.227  0.00  0.00    +0.000 A 
ATOM     13  C   UNL     1     -44.458  -1.792 -33.080  0.00  0.00    +0.000 A 
ATOM     14  F   UNL     1     -41.382   0.186 -33.026  0.00  0.00    +0.000 F 
ENDBRANCH   5   8
BRANCH   1  15
ATOM     15  C   UNL     1     -46.632  -4.248 -30.614  0.00  0.00    +0.000 C 
ATOM     16  N   UNL     1     -46.669  -5.655 -30.371  0.00  0.00    +0.000 NA
ATOM     17  O   UNL     1     -46.873  -3.432 -29.685  0.00  0.00    +0.000 OA
BRANCH  16  18
ATOM     18  C   UNL     1     -47.024  -6.210 -29.075  0.00  0.00    +0.000 C 
BRANCH  18  19
ATOM     19  C   UNL     1     -46.393  -7.598 -28.907  0.00  0.00    +0.000 C 
BRANCH  19  20
ATOM     20  N   UNL     1     -45.201  -7.622 -28.044  0.00  0.00    +0.000 NA
BRANCH  20  22
ATOM     21  C   UNL     1     -45.419  -6.879 -25.735  0.00  0.00    +0.000 C 
ATOM     22  C   UNL     1     -45.190  -6.453 -27.173  0.00  0.00    +0.000 C 
ENDBRANCH  20  22
BRANCH  20  23
ATOM     23  C   UNL     1     -43.985  -7.595 -28.849  0.00  0.00    +0.000 C 
ATOM     24  C   UNL     1     -43.358  -6.215 -28.797  0.00  0.00    +0.000 C 
ENDBRANCH  20  23
ENDBRANCH  19  20
ENDBRANCH  18  19
ENDBRANCH  16  18
ENDBRANCH   1  15
TORSDOF 7
ENDMDL
MODEL 3
REMARK VINA RESULT:      -5.2      4.291      7.606
REMARK  Name = ZINC000072242259 PubChem-95740472
REMARK  7 active torsions:
REMARK  status: ('A' for Active; 'I' for Inactive)
REMARK    1  A    between atoms: C_2  and  N_19
REMARK    2  A    between atoms: C_3  and  N_19
REMARK    3  A    between atoms: C_5  and  C_6
REMARK    4  A    between atoms: C_5  and  N_19
REMARK    5  A    between atoms: C_6  and  N_20
REMARK    6  A    between atoms: C_7  and  C_8
REMARK    7  A    between atoms: C_12  and  C_13
REMARK                            x       y       z     vdW  Elec       q    Type
REMARK                         _______ _______ _______ _____ _____    ______ ____
ROOT
ATOM      1  C   UNL     1     -46.061  -5.606 -27.209  0.00  0.00    +0.000 C 
ATOM      2  C   UNL     1     -45.113  -6.804 -27.066  0.00  0.00    +0.000 C 
ATOM      3  C   UNL     1     -45.651  -7.525 -25.896  0.00  0.00    +0.000 C 
ATOM      4  C   UNL     1     -47.646  -7.504 -24.333  0.00  0.00    +0.000 C 
ATOM      5  C   UNL     1     -47.140  -5.730 -26.116  0.00  0.00    +0.000 C 
ATOM      6  N   UNL     1     -46.785  -6.900 -25.336  0.00  0.00    +0.000 N 
ATOM      7  O   UNL     1     -45.162  -8.595 -25.448  0.00  0.00    +0.000 OA
ENDROOT
BRANCH   5   8
ATOM      8  C   UNL     1     -47.180  -4.501 -25.259  0.00  0.00    +0.000 A 
ATOM      9  C   UNL     1     -47.349  -3.252 -25.865  0.00  0.00    +0.000 A 
ATOM     10  C   UNL     1     -47.390  -2.093 -25.085  0.00  0.00    +0.000 A 
ATOM     11  C   UNL     1     -47.261  -2.178 -23.696  0.00  0.00    +0.000 A 
ATOM     12  C   UNL     1     -47.091  -3.423 -23.085  0.00  0.00    +0.000 A 
ATOM     13  C   UNL     1     -47.051  -4.583 -23.863  0.00  0.00    +0.000 A 
ATOM     14  F   UNL     1     -47.302  -1.053 -22.942  0.00  0.00    +0.000 F 
ENDBRANCH   5   8
BRANCH   1  15
ATOM     15  C   UNL     1     -46.688  -5.598 -28.564  0.00  0.00    +0.000 C 
ATOM     16  N   UNL     1     -46.814  -4.373 -29.288  0.00  0.00    +0.000 NA
ATOM     17  O   UNL     1     -47.112  -6.677 -29.056  0.00  0.00    +0.000 OA
BRANCH  16  18
ATOM     18  C   UNL     1     -47.464  -4.301 -30.587  0.00  0.00    +0.000 C 
BRANCH  18  19
ATOM     19  C   UNL     1     -46.528  -3.644 -31.608  0.00  0.00    +0.000 C 
BRANCH  19  20
ATOM     20  N   UNL     1     -45.097  -3.880 -31.359  0.00  0.00    +0.000 NA
BRANCH  20  22
ATOM     21  C   UNL     1     -45.114  -1.444 -31.366  0.00  0.00    +0.000 C 
ATOM     22  C   UNL     1     -44.325  -2.695 -31.709  0.00  0.00    +0.000 C 
ENDBRANCH  20  22
BRANCH  20  23
ATOM     23  C   UNL     1     -44.611  -4.990 -32.171  0.00  0.00    +0.000 C 
ATOM     24  C   UNL     1     -45.241  -4.940 -33.549  0.00  0.00    +0.000 C 
ENDBRANCH  20  23
ENDBRANCH  19  20
ENDBRANCH  18  19
ENDBRANCH  16  18
ENDBRANCH   1  15
TORSDOF 7
ENDMDL
