MODEL 1
REMARK VINA RESULT:      -8.2      0.000      0.000
REMARK  Name = ZINC000113940140 CSC048854728
REMARK  3 active torsions:
REMARK  status: ('A' for Active; 'I' for Inactive)
REMARK    1  A    between atoms: C_2  and  C_5
REMARK    2  A    between atoms: N_3  and  C_18
REMARK    3  A    between atoms: C_23  and  C_24
REMARK                            x       y       z     vdW  Elec       q    Type
REMARK                         _______ _______ _______ _____ _____    ______ ____
ROOT
ATOM      1  O   UNL     1     -47.756  -5.150 -30.197  0.00  0.00    +0.000 OA
ATOM      2  C   UNL     1     -47.058  -5.539 -29.223  0.00  0.00    +0.000 C 
ATOM      3  N   UNL     1     -46.207  -6.686 -29.334  0.00  0.00    +0.000 N 
ATOM      4  H   UNL     1     -45.721  -6.948 -28.519  0.00  0.00    +0.000 HD
ENDROOT
BRANCH   2   5
ATOM      5  C   UNL     1     -47.102  -4.810 -27.952  0.00  0.00    +0.000 A 
ATOM      6  C   UNL     1     -46.924  -5.383 -26.691  0.00  0.00    +0.000 A 
ATOM      7  C   UNL     1     -47.064  -4.301 -25.842  0.00  0.00    +0.000 A 
ATOM      8  C   UNL     1     -47.309  -3.193 -26.608  0.00  0.00    +0.000 A 
ATOM      9  O   UNL     1     -47.327  -3.512 -27.873  0.00  0.00    +0.000 OA
ATOM     10  C   UNL     1     -47.501  -1.930 -26.050  0.00  0.00    +0.000 A 
ATOM     11  C   UNL     1     -47.438  -1.814 -24.650  0.00  0.00    +0.000 A 
ATOM     12  C   UNL     1     -47.187  -2.947 -23.847  0.00  0.00    +0.000 A 
ATOM     13  C   UNL     1     -47.126  -2.825 -22.458  0.00  0.00    +0.000 A 
ATOM     14  C   UNL     1     -46.876  -3.950 -21.665  0.00  0.00    +0.000 A 
ATOM     15  C   UNL     1     -46.687  -5.204 -22.258  0.00  0.00    +0.000 A 
ATOM     16  C   UNL     1     -46.746  -5.342 -23.648  0.00  0.00    +0.000 A 
ATOM     17  C   UNL     1     -46.995  -4.221 -24.448  0.00  0.00    +0.000 A 
ENDBRANCH   2   5
BRANCH   3  18
ATOM     18  C   UNL     1     -45.978  -7.497 -30.498  0.00  0.00    +0.000 A 
ATOM     19  C   UNL     1     -46.615  -8.737 -30.648  0.00  0.00    +0.000 A 
ATOM     20  C   UNL     1     -46.348  -9.548 -31.752  0.00  0.00    +0.000 A 
ATOM     21  C   UNL     1     -45.431  -9.130 -32.716  0.00  0.00    +0.000 A 
ATOM     22  C   UNL     1     -44.790  -7.897 -32.581  0.00  0.00    +0.000 A 
ATOM     23  C   UNL     1     -45.065  -7.064 -31.487  0.00  0.00    +0.000 A 
BRANCH  23  24
ATOM     24  C   UNL     1     -44.356  -5.767 -31.391  0.00  0.00    +0.000 C 
ATOM     25  O   UNL     1     -43.279  -5.707 -30.738  0.00  0.00    +0.000 OA
ATOM     26  N   UNL     1     -44.862  -4.586 -32.033  0.00  0.00    +0.000 N 
ATOM     27  C   UNL     1     -44.407  -3.269 -31.588  0.00  0.00    +0.000 C 
ATOM     28  C   UNL     1     -45.467  -2.225 -31.938  0.00  0.00    +0.000 C 
ATOM     29  O   UNL     1     -45.771  -2.294 -33.310  0.00  0.00    +0.000 OA
ATOM     30  C   UNL     1     -46.478  -3.495 -33.502  0.00  0.00    +0.000 C 
ATOM     31  C   UNL     1     -45.537  -4.687 -33.328  0.00  0.00    +0.000 C 
ENDBRANCH  23  24
ENDBRANCH   3  18
TORSDOF 3
ENDMDL
MODEL 2
REMARK VINA RESULT:      -7.9      1.739      2.874
REMARK  Name = ZINC000113940140 CSC048854728
REMARK  3 active torsions:
REMARK  status: ('A' for Active; 'I' for Inactive)
REMARK    1  A    between atoms: C_2  and  C_5
REMARK    2  A    between atoms: N_3  and  C_18
REMARK    3  A    between atoms: C_23  and  C_24
REMARK                            x       y       z     vdW  Elec       q    Type
REMARK                         _______ _______ _______ _____ _____    ______ ____
ROOT
ATOM      1  O   UNL     1     -44.684  -7.196 -29.976  0.00  0.00    +0.000 OA
ATOM      2  C   UNL     1     -45.799  -6.644 -29.773  0.00  0.00    +0.000 C 
ATOM      3  N   UNL     1     -46.757  -6.502 -30.828  0.00  0.00    +0.000 N 
ATOM      4  H   UNL     1     -47.589  -6.028 -30.600  0.00  0.00    +0.000 HD
ENDROOT
BRANCH   2   5
ATOM      5  C   UNL     1     -46.136  -6.144 -28.437  0.00  0.00    +0.000 A 
ATOM      6  C   UNL     1     -46.445  -4.816 -28.132  0.00  0.00    +0.000 A 
ATOM      7  C   UNL     1     -46.673  -4.863 -26.769  0.00  0.00    +0.000 A 
ATOM      8  C   UNL     1     -46.496  -6.156 -26.355  0.00  0.00    +0.000 A 
ATOM      9  O   UNL     1     -46.175  -6.915 -27.367  0.00  0.00    +0.000 OA
ATOM     10  C   UNL     1     -46.651  -6.540 -25.024  0.00  0.00    +0.000 A 
ATOM     11  C   UNL     1     -47.002  -5.547 -24.092  0.00  0.00    +0.000 A 
ATOM     12  C   UNL     1     -47.190  -4.211 -24.503  0.00  0.00    +0.000 A 
ATOM     13  C   UNL     1     -47.539  -3.231 -23.571  0.00  0.00    +0.000 A 
ATOM     14  C   UNL     1     -47.723  -1.907 -23.983  0.00  0.00    +0.000 A 
ATOM     15  C   UNL     1     -47.560  -1.556 -25.328  0.00  0.00    +0.000 A 
ATOM     16  C   UNL     1     -47.210  -2.526 -26.272  0.00  0.00    +0.000 A 
ATOM     17  C   UNL     1     -47.023  -3.853 -25.869  0.00  0.00    +0.000 A 
ENDBRANCH   2   5
BRANCH   3  18
ATOM     18  C   UNL     1     -46.646  -6.973 -32.182  0.00  0.00    +0.000 A 
ATOM     19  C   UNL     1     -46.811  -8.332 -32.488  0.00  0.00    +0.000 A 
ATOM     20  C   UNL     1     -46.646  -8.795 -33.794  0.00  0.00    +0.000 A 
ATOM     21  C   UNL     1     -46.306  -7.903 -34.810  0.00  0.00    +0.000 A 
ATOM     22  C   UNL     1     -46.139  -6.546 -34.521  0.00  0.00    +0.000 A 
ATOM     23  C   UNL     1     -46.322  -6.066 -33.216  0.00  0.00    +0.000 A 
BRANCH  23  24
ATOM     24  C   UNL     1     -46.132  -4.619 -32.963  0.00  0.00    +0.000 C 
ATOM     25  O   UNL     1     -47.144  -3.899 -32.744  0.00  0.00    +0.000 OA
ATOM     26  N   UNL     1     -44.824  -4.025 -32.950  0.00  0.00    +0.000 N 
ATOM     27  C   UNL     1     -44.683  -2.580 -33.126  0.00  0.00    +0.000 C 
ATOM     28  C   UNL     1     -43.292  -2.273 -33.680  0.00  0.00    +0.000 C 
ATOM     29  O   UNL     1     -42.310  -2.849 -32.853  0.00  0.00    +0.000 OA
ATOM     30  C   UNL     1     -42.394  -4.240 -33.045  0.00  0.00    +0.000 C 
ATOM     31  C   UNL     1     -43.683  -4.775 -32.422  0.00  0.00    +0.000 C 
ENDBRANCH  23  24
ENDBRANCH   3  18
TORSDOF 3
ENDMDL
MODEL 3
REMARK VINA RESULT:      -7.5      3.159      4.677
REMARK  Name = ZINC000113940140 CSC048854728
REMARK  3 active torsions:
REMARK  status: ('A' for Active; 'I' for Inactive)
REMARK    1  A    between atoms: C_2  and  C_5
REMARK    2  A    between atoms: N_3  and  C_18
REMARK    3  A    between atoms: C_23  and  C_24
REMARK                            x       y       z     vdW  Elec       q    Type
REMARK                         _______ _______ _______ _____ _____    ______ ____
ROOT
ATOM      1  O   UNL     1     -44.598  -8.864 -27.214  0.00  0.00    +0.000 OA
ATOM      2  C   UNL     1     -45.812  -8.527 -27.165  0.00  0.00    +0.000 C 
ATOM      3  N   UNL     1     -46.851  -9.464 -27.472  0.00  0.00    +0.000 N 
ATOM      4  H   UNL     1     -47.772  -9.117 -27.446  0.00  0.00    +0.000 HD
ENDROOT
BRANCH   2   5
ATOM      5  C   UNL     1     -46.179  -7.161 -26.781  0.00  0.00    +0.000 A 
ATOM      6  C   UNL     1     -46.305  -6.704 -25.467  0.00  0.00    +0.000 A 
ATOM      7  C   UNL     1     -46.669  -5.381 -25.639  0.00  0.00    +0.000 A 
ATOM      8  C   UNL     1     -46.738  -5.134 -26.984  0.00  0.00    +0.000 A 
ATOM      9  O   UNL     1     -46.440  -6.210 -27.658  0.00  0.00    +0.000 OA
ATOM     10  C   UNL     1     -47.084  -3.884 -27.494  0.00  0.00    +0.000 A 
ATOM     11  C   UNL     1     -47.368  -2.856 -26.577  0.00  0.00    +0.000 A 
ATOM     12  C   UNL     1     -47.301  -3.096 -25.188  0.00  0.00    +0.000 A 
ATOM     13  C   UNL     1     -47.585  -2.070 -24.284  0.00  0.00    +0.000 A 
ATOM     14  C   UNL     1     -47.518  -2.312 -22.908  0.00  0.00    +0.000 A 
ATOM     15  C   UNL     1     -47.167  -3.579 -22.429  0.00  0.00    +0.000 A 
ATOM     16  C   UNL     1     -46.880  -4.616 -23.322  0.00  0.00    +0.000 A 
ATOM     17  C   UNL     1     -46.945  -4.383 -24.701  0.00  0.00    +0.000 A 
ENDBRANCH   2   5
BRANCH   3  18
ATOM     18  C   UNL     1     -46.707 -10.853 -27.810  0.00  0.00    +0.000 A 
ATOM     19  C   UNL     1     -46.574 -11.828 -26.810  0.00  0.00    +0.000 A 
ATOM     20  C   UNL     1     -46.377 -13.169 -27.143  0.00  0.00    +0.000 A 
ATOM     21  C   UNL     1     -46.302 -13.550 -28.482  0.00  0.00    +0.000 A 
ATOM     22  C   UNL     1     -46.434 -12.591 -29.488  0.00  0.00    +0.000 A 
ATOM     23  C   UNL     1     -46.653 -11.243 -29.168  0.00  0.00    +0.000 A 
BRANCH  23  24
ATOM     24  C   UNL     1     -46.784 -10.266 -30.273  0.00  0.00    +0.000 C 
ATOM     25  O   UNL     1     -47.756  -9.463 -30.266  0.00  0.00    +0.000 OA
ATOM     26  N   UNL     1     -45.825 -10.208 -31.341  0.00  0.00    +0.000 N 
ATOM     27  C   UNL     1     -46.185  -9.562 -32.603  0.00  0.00    +0.000 C 
ATOM     28  C   UNL     1     -45.321 -10.135 -33.726  0.00  0.00    +0.000 C 
ATOM     29  O   UNL     1     -43.960 -10.019 -33.390  0.00  0.00    +0.000 OA
ATOM     30  C   UNL     1     -43.726 -10.939 -32.352  0.00  0.00    +0.000 C 
ATOM     31  C   UNL     1     -44.409 -10.462 -31.070  0.00  0.00    +0.000 C 
ENDBRANCH  23  24
ENDBRANCH   3  18
TORSDOF 3
ENDMDL
