MODEL 1
REMARK VINA RESULT:      -7.2      0.000      0.000
REMARK  Name = ZINC000020924280 ZINC20924280 PubChem-92705263
REMARK  4 active torsions:
REMARK  status: ('A' for Active; 'I' for Inactive)
REMARK    1  A    between atoms: C_5  and  C_8
REMARK    2  A    between atoms: C_12  and  C_13
REMARK    3  A    between atoms: C_15  and  O_24
REMARK    4  A    between atoms: C_17  and  O_23
REMARK                            x       y       z     vdW  Elec       q    Type
REMARK                         _______ _______ _______ _____ _____    ______ ____
ROOT
ATOM      1  C   UNL     1     -46.946  -4.299 -31.325  0.00  0.00    +0.000 C 
ATOM      2  C   UNL     1     -46.744  -5.713 -31.888  0.00  0.00    +0.000 C 
ATOM      3  C   UNL     1     -45.777  -6.488 -31.054  0.00  0.00    +0.000 C 
ATOM      4  C   UNL     1     -46.407  -5.126 -29.087  0.00  0.00    +0.000 C 
ATOM      5  C   UNL     1     -47.144  -3.969 -26.932  0.00  0.00    +0.000 C 
ATOM      6  O   UNL     1     -45.074  -7.394 -31.572  0.00  0.00    +0.000 OA
ATOM      7  O   UNL     1     -47.757  -3.051 -27.542  0.00  0.00    +0.000 OA
ATOM      8  N   UNL     1     -45.673  -6.213 -29.659  0.00  0.00    +0.000 NA
ATOM      9  N   UNL     1     -47.017  -4.272 -29.858  0.00  0.00    +0.000 NA
ATOM     10  N   UNL     1     -46.466  -5.003 -27.662  0.00  0.00    +0.000 NA
ENDROOT
BRANCH   1  15
ATOM     11  C   UNL     1     -42.961  -0.559 -33.230  0.00  0.00    +0.000 C 
ATOM     12  C   UNL     1     -43.981  -1.526 -32.747  0.00  0.00    +0.000 A 
ATOM     13  C   UNL     1     -44.805  -1.190 -31.667  0.00  0.00    +0.000 A 
ATOM     14  C   UNL     1     -45.764  -2.100 -31.211  0.00  0.00    +0.000 A 
ATOM     15  C   UNL     1     -45.903  -3.348 -31.830  0.00  0.00    +0.000 A 
ATOM     16  C   UNL     1     -45.077  -3.678 -32.915  0.00  0.00    +0.000 A 
ATOM     17  C   UNL     1     -44.117  -2.770 -33.370  0.00  0.00    +0.000 A 
ENDBRANCH   1  15
BRANCH   5  18
ATOM     18  C   UNL     1     -47.121  -3.979 -25.458  0.00  0.00    +0.000 A 
ATOM     19  C   UNL     1     -46.958  -5.183 -24.759  0.00  0.00    +0.000 A 
ATOM     20  C   UNL     1     -46.934  -5.199 -23.362  0.00  0.00    +0.000 A 
ATOM     21  C   UNL     1     -47.076  -3.994 -22.656  0.00  0.00    +0.000 A 
ATOM     22  C   UNL     1     -47.239  -2.786 -23.337  0.00  0.00    +0.000 A 
ATOM     23  C   UNL     1     -47.260  -2.784 -24.740  0.00  0.00    +0.000 A 
BRANCH  22  25
ATOM     24  C   UNL     1     -46.525  -1.276 -21.512  0.00  0.00    +0.000 C 
ATOM     25  O   UNL     1     -47.377  -1.606 -22.600  0.00  0.00    +0.000 OA
ENDBRANCH  22  25
BRANCH  20  27
ATOM     26  C   UNL     1     -46.402  -7.614 -23.378  0.00  0.00    +0.000 C 
ATOM     27  O   UNL     1     -46.770  -6.421 -22.702  0.00  0.00    +0.000 OA
ENDBRANCH  20  27
ENDBRANCH   5  18
TORSDOF 4
ENDMDL
MODEL 2
REMARK VINA RESULT:      -6.4     10.835     16.031
REMARK  Name = ZINC000020924280 ZINC20924280 PubChem-92705263
REMARK  4 active torsions:
REMARK  status: ('A' for Active; 'I' for Inactive)
REMARK    1  A    between atoms: C_5  and  C_8
REMARK    2  A    between atoms: C_12  and  C_13
REMARK    3  A    between atoms: C_15  and  O_24
REMARK    4  A    between atoms: C_17  and  O_23
REMARK                            x       y       z     vdW  Elec       q    Type
REMARK                         _______ _______ _______ _____ _____    ______ ____
ROOT
ATOM      1  C   UNL     1     -45.752 -18.646 -20.452  0.00  0.00    +0.000 C 
ATOM      2  C   UNL     1     -46.395 -17.873 -19.290  0.00  0.00    +0.000 C 
ATOM      3  C   UNL     1     -45.979 -16.439 -19.305  0.00  0.00    +0.000 C 
ATOM      4  C   UNL     1     -45.649 -16.577 -21.753  0.00  0.00    +0.000 C 
ATOM      5  C   UNL     1     -45.514 -16.512 -24.304  0.00  0.00    +0.000 C 
ATOM      6  O   UNL     1     -45.922 -15.783 -18.233  0.00  0.00    +0.000 OA
ATOM      7  O   UNL     1     -45.545 -17.768 -24.415  0.00  0.00    +0.000 OA
ATOM      8  N   UNL     1     -45.670 -15.810 -20.546  0.00  0.00    +0.000 NA
ATOM      9  N   UNL     1     -45.723 -17.876 -21.702  0.00  0.00    +0.000 NA
ATOM     10  N   UNL     1     -45.559 -15.894 -23.008  0.00  0.00    +0.000 NA
ENDROOT
BRANCH   1  15
ATOM     11  C   UNL     1     -40.489 -20.554 -18.987  0.00  0.00    +0.000 C 
ATOM     12  C   UNL     1     -41.838 -20.064 -19.372  0.00  0.00    +0.000 A 
ATOM     13  C   UNL     1     -42.841 -19.950 -18.404  0.00  0.00    +0.000 A 
ATOM     14  C   UNL     1     -44.111 -19.490 -18.766  0.00  0.00    +0.000 A 
ATOM     15  C   UNL     1     -44.384 -19.144 -20.095  0.00  0.00    +0.000 A 
ATOM     16  C   UNL     1     -43.373 -19.258 -21.061  0.00  0.00    +0.000 A 
ATOM     17  C   UNL     1     -42.104 -19.719 -20.700  0.00  0.00    +0.000 A 
ENDBRANCH   1  15
BRANCH   5  18
ATOM     18  C   UNL     1     -45.426 -15.672 -25.511  0.00  0.00    +0.000 A 
ATOM     19  C   UNL     1     -44.499 -15.971 -26.519  0.00  0.00    +0.000 A 
ATOM     20  C   UNL     1     -44.411 -15.180 -27.667  0.00  0.00    +0.000 A 
ATOM     21  C   UNL     1     -45.263 -14.072 -27.808  0.00  0.00    +0.000 A 
ATOM     22  C   UNL     1     -46.193 -13.760 -26.813  0.00  0.00    +0.000 A 
ATOM     23  C   UNL     1     -46.271 -14.565 -25.666  0.00  0.00    +0.000 A 
BRANCH  22  25
ATOM     24  C   UNL     1     -46.611 -11.325 -26.687  0.00  0.00    +0.000 C 
ATOM     25  O   UNL     1     -47.025 -12.651 -26.988  0.00  0.00    +0.000 OA
ENDBRANCH  22  25
BRANCH  20  27
ATOM     26  C   UNL     1     -42.400 -16.412 -28.411  0.00  0.00    +0.000 C 
ATOM     27  O   UNL     1     -43.473 -15.512 -28.649  0.00  0.00    +0.000 OA
ENDBRANCH  20  27
ENDBRANCH   5  18
TORSDOF 4
ENDMDL
MODEL 3
REMARK VINA RESULT:      -6.4     10.852     16.207
REMARK  Name = ZINC000020924280 ZINC20924280 PubChem-92705263
REMARK  4 active torsions:
REMARK  status: ('A' for Active; 'I' for Inactive)
REMARK    1  A    between atoms: C_5  and  C_8
REMARK    2  A    between atoms: C_12  and  C_13
REMARK    3  A    between atoms: C_15  and  O_24
REMARK    4  A    between atoms: C_17  and  O_23
REMARK                            x       y       z     vdW  Elec       q    Type
REMARK                         _______ _______ _______ _____ _____    ______ ____
ROOT
ATOM      1  C   UNL     1     -45.809 -18.514 -20.339  0.00  0.00    +0.000 C 
ATOM      2  C   UNL     1     -46.347 -17.673 -19.173  0.00  0.00    +0.000 C 
ATOM      3  C   UNL     1     -45.815 -16.278 -19.227  0.00  0.00    +0.000 C 
ATOM      4  C   UNL     1     -45.580 -16.482 -21.682  0.00  0.00    +0.000 C 
ATOM      5  C   UNL     1     -45.524 -16.469 -24.236  0.00  0.00    +0.000 C 
ATOM      6  O   UNL     1     -45.669 -15.612 -18.170  0.00  0.00    +0.000 OA
ATOM      7  O   UNL     1     -45.663 -17.719 -24.323  0.00  0.00    +0.000 OA
ATOM      8  N   UNL     1     -45.497 -15.696 -20.490  0.00  0.00    +0.000 NA
ATOM      9  N   UNL     1     -45.758 -17.770 -21.604  0.00  0.00    +0.000 NA
ATOM     10  N   UNL     1     -45.476 -15.829 -22.952  0.00  0.00    +0.000 NA
ENDROOT
BRANCH   1  15
ATOM     11  C   UNL     1     -40.677 -20.833 -19.007  0.00  0.00    +0.000 C 
ATOM     12  C   UNL     1     -41.992 -20.237 -19.358  0.00  0.00    +0.000 A 
ATOM     13  C   UNL     1     -42.979 -20.097 -18.377  0.00  0.00    +0.000 A 
ATOM     14  C   UNL     1     -44.217 -19.537 -18.707  0.00  0.00    +0.000 A 
ATOM     15  C   UNL     1     -44.475 -19.118 -20.017  0.00  0.00    +0.000 A 
ATOM     16  C   UNL     1     -43.481 -19.258 -20.997  0.00  0.00    +0.000 A 
ATOM     17  C   UNL     1     -42.244 -19.818 -20.668  0.00  0.00    +0.000 A 
ENDBRANCH   1  15
BRANCH   5  18
ATOM     18  C   UNL     1     -45.408 -15.658 -25.462  0.00  0.00    +0.000 A 
ATOM     19  C   UNL     1     -46.214 -14.526 -25.643  0.00  0.00    +0.000 A 
ATOM     20  C   UNL     1     -46.109 -13.752 -26.802  0.00  0.00    +0.000 A 
ATOM     21  C   UNL     1     -45.184 -14.118 -27.793  0.00  0.00    +0.000 A 
ATOM     22  C   UNL     1     -44.373 -15.244 -27.628  0.00  0.00    +0.000 A 
ATOM     23  C   UNL     1     -44.489 -16.011 -26.458  0.00  0.00    +0.000 A 
BRANCH  22  25
ATOM     24  C   UNL     1     -42.367 -16.453 -28.421  0.00  0.00    +0.000 C 
ATOM     25  O   UNL     1     -43.464 -15.577 -28.636  0.00  0.00    +0.000 OA
ENDBRANCH  22  25
BRANCH  20  27
ATOM     26  C   UNL     1     -46.644 -11.579 -27.855  0.00  0.00    +0.000 C 
ATOM     27  O   UNL     1     -46.931 -12.631 -26.944  0.00  0.00    +0.000 OA
ENDBRANCH  20  27
ENDBRANCH   5  18
TORSDOF 4
ENDMDL
