MODEL 1
REMARK VINA RESULT:      -7.1      0.000      0.000
REMARK  Name = ZINC000018200371
REMARK  2 active torsions:
REMARK  status: ('A' for Active; 'I' for Inactive)
REMARK    1  A    between atoms: C_1  and  C_31
REMARK    2  A    between atoms: C_3  and  O_4
REMARK                            x       y       z     vdW  Elec       q    Type
REMARK                         _______ _______ _______ _____ _____    ______ ____
ROOT
ATOM      1  C   UNL     1     -46.155  -5.740 -32.060  0.00  0.00    +0.000 C 
ATOM      2  C   UNL     1     -46.372  -5.769 -30.579  0.00  0.00    +0.000 A 
ATOM      3  C   UNL     1     -47.049  -4.946 -29.715  0.00  0.00    +0.000 A 
ATOM      4  N   UNL     1     -46.926  -5.410 -28.452  0.00  0.00    +0.000 NA
ATOM      5  N   UNL     1     -46.185  -6.515 -28.486  0.00  0.00    +0.000 N 
ATOM      6  C   UNL     1     -45.854  -6.725 -29.772  0.00  0.00    +0.000 A 
ATOM      7  N   UNL     1     -45.083  -7.805 -30.280  0.00  0.00    +0.000 N 
ATOM      8  C   UNL     1     -44.889  -7.911 -31.702  0.00  0.00    +0.000 C 
ATOM      9  C   UNL     1     -45.386  -6.970 -32.560  0.00  0.00    +0.000 C 
ATOM     10  C   UNL     1     -45.243  -7.171 -34.024  0.00  0.00    +0.000 C 
ATOM     11  O   UNL     1     -45.763  -6.359 -34.834  0.00  0.00    +0.000 OA
ATOM     12  C   UNL     1     -44.454  -8.325 -34.568  0.00  0.00    +0.000 C 
ATOM     13  C   UNL     1     -44.459  -9.519 -33.615  0.00  0.00    +0.000 C 
ATOM     14  C   UNL     1     -43.440 -10.527 -34.100  0.00  0.00    +0.000 C 
ATOM     15  C   UNL     1     -45.826 -10.186 -33.605  0.00  0.00    +0.000 C 
ATOM     16  C   UNL     1     -44.071  -9.072 -32.205  0.00  0.00    +0.000 C 
ATOM     17  H   UNL     1     -45.928  -7.071 -27.717  0.00  0.00    +0.000 HD
ATOM     18  H   UNL     1     -44.689  -8.469 -29.670  0.00  0.00    +0.000 HD
ENDROOT
BRANCH   1  29
ATOM     19  C   UNL     1     -47.636  -3.636 -33.677  0.00  0.00    +0.000 C 
ATOM     20  C   UNL     1     -46.217  -3.461 -33.253  0.00  0.00    +0.000 A 
ATOM     21  N   UNL     1     -45.570  -2.320 -33.610  0.00  0.00    +0.000 NA
ATOM     22  C   UNL     1     -44.278  -2.101 -33.261  0.00  0.00    +0.000 A 
ATOM     23  C   UNL     1     -43.628  -0.922 -33.637  0.00  0.00    +0.000 A 
ATOM     24  C   UNL     1     -42.294  -0.714 -33.269  0.00  0.00    +0.000 A 
ATOM     25  C   UNL     1     -41.610  -1.684 -32.526  0.00  0.00    +0.000 A 
ATOM     26  C   UNL     1     -42.257  -2.866 -32.148  0.00  0.00    +0.000 A 
ATOM     27  C   UNL     1     -43.589  -3.076 -32.514  0.00  0.00    +0.000 A 
ATOM     28  N   UNL     1     -44.231  -4.216 -32.156  0.00  0.00    +0.000 NA
ATOM     29  C   UNL     1     -45.529  -4.441 -32.500  0.00  0.00    +0.000 A 
ENDBRANCH   1  29
BRANCH   3  30
ATOM     30  O   UNL     1     -47.756  -3.802 -30.060  0.00  0.00    +0.000 OA
ATOM     31  H   UNL     1     -47.321  -3.093 -30.490  0.00  0.00    +0.000 HD
ENDBRANCH   3  30
TORSDOF 2
ENDMDL
MODEL 2
REMARK VINA RESULT:      -6.6      2.443      4.752
REMARK  Name = ZINC000018200371
REMARK  2 active torsions:
REMARK  status: ('A' for Active; 'I' for Inactive)
REMARK    1  A    between atoms: C_1  and  C_31
REMARK    2  A    between atoms: C_3  and  O_4
REMARK                            x       y       z     vdW  Elec       q    Type
REMARK                         _______ _______ _______ _____ _____    ______ ____
ROOT
ATOM      1  C   UNL     1     -44.057  -6.588 -31.217  0.00  0.00    +0.000 C 
ATOM      2  C   UNL     1     -45.049  -7.097 -32.217  0.00  0.00    +0.000 A 
ATOM      3  C   UNL     1     -44.989  -7.312 -33.570  0.00  0.00    +0.000 A 
ATOM      4  N   UNL     1     -46.179  -7.774 -34.012  0.00  0.00    +0.000 NA
ATOM      5  N   UNL     1     -47.002  -7.862 -32.971  0.00  0.00    +0.000 N 
ATOM      6  C   UNL     1     -46.314  -7.451 -31.891  0.00  0.00    +0.000 A 
ATOM      7  N   UNL     1     -46.793  -7.398 -30.554  0.00  0.00    +0.000 N 
ATOM      8  C   UNL     1     -45.889  -6.999 -29.508  0.00  0.00    +0.000 C 
ATOM      9  C   UNL     1     -44.603  -6.627 -29.783  0.00  0.00    +0.000 C 
ATOM     10  C   UNL     1     -43.680  -6.315 -28.663  0.00  0.00    +0.000 C 
ATOM     11  O   UNL     1     -42.469  -6.048 -28.889  0.00  0.00    +0.000 OA
ATOM     12  C   UNL     1     -44.171  -6.284 -27.247  0.00  0.00    +0.000 C 
ATOM     13  C   UNL     1     -45.364  -7.216 -27.037  0.00  0.00    +0.000 C 
ATOM     14  C   UNL     1     -45.963  -6.933 -25.677  0.00  0.00    +0.000 C 
ATOM     15  C   UNL     1     -44.916  -8.669 -27.071  0.00  0.00    +0.000 C 
ATOM     16  C   UNL     1     -46.430  -6.959 -28.103  0.00  0.00    +0.000 C 
ATOM     17  H   UNL     1     -47.937  -8.169 -32.988  0.00  0.00    +0.000 HD
ATOM     18  H   UNL     1     -47.728  -7.628 -30.348  0.00  0.00    +0.000 HD
ENDROOT
BRANCH   1  29
ATOM     19  C   UNL     1     -41.227  -6.114 -32.217  0.00  0.00    +0.000 C 
ATOM     20  C   UNL     1     -42.215  -5.007 -32.071  0.00  0.00    +0.000 A 
ATOM     21  N   UNL     1     -41.826  -3.745 -32.394  0.00  0.00    +0.000 NA
ATOM     22  C   UNL     1     -42.675  -2.692 -32.278  0.00  0.00    +0.000 A 
ATOM     23  C   UNL     1     -42.258  -1.401 -32.615  0.00  0.00    +0.000 A 
ATOM     24  C   UNL     1     -43.147  -0.328 -32.488  0.00  0.00    +0.000 A 
ATOM     25  C   UNL     1     -44.449  -0.544 -32.025  0.00  0.00    +0.000 A 
ATOM     26  C   UNL     1     -44.870  -1.835 -31.687  0.00  0.00    +0.000 A 
ATOM     27  C   UNL     1     -43.985  -2.909 -31.813  0.00  0.00    +0.000 A 
ATOM     28  N   UNL     1     -44.377  -4.168 -31.489  0.00  0.00    +0.000 NA
ATOM     29  C   UNL     1     -43.533  -5.229 -31.605  0.00  0.00    +0.000 A 
ENDBRANCH   1  29
BRANCH   3  30
ATOM     30  O   UNL     1     -43.886  -7.091 -34.385  0.00  0.00    +0.000 OA
ATOM     31  H   UNL     1     -43.763  -7.607 -35.157  0.00  0.00    +0.000 HD
ENDBRANCH   3  30
TORSDOF 2
ENDMDL
MODEL 3
REMARK VINA RESULT:      -6.6     10.210     13.176
REMARK  Name = ZINC000018200371
REMARK  2 active torsions:
REMARK  status: ('A' for Active; 'I' for Inactive)
REMARK    1  A    between atoms: C_1  and  C_31
REMARK    2  A    between atoms: C_3  and  O_4
REMARK                            x       y       z     vdW  Elec       q    Type
REMARK                         _______ _______ _______ _____ _____    ______ ____
ROOT
ATOM      1  C   UNL     1     -43.605 -16.515 -25.410  0.00  0.00    +0.000 C 
ATOM      2  C   UNL     1     -44.530 -17.664 -25.156  0.00  0.00    +0.000 A 
ATOM      3  C   UNL     1     -44.933 -18.729 -25.921  0.00  0.00    +0.000 A 
ATOM      4  N   UNL     1     -45.806 -19.488 -25.224  0.00  0.00    +0.000 NA
ATOM      5  N   UNL     1     -45.973 -18.933 -24.026  0.00  0.00    +0.000 N 
ATOM      6  C   UNL     1     -45.201 -17.833 -23.993  0.00  0.00    +0.000 A 
ATOM      7  N   UNL     1     -45.051 -16.939 -22.898  0.00  0.00    +0.000 N 
ATOM      8  C   UNL     1     -44.119 -15.849 -23.015  0.00  0.00    +0.000 C 
ATOM      9  C   UNL     1     -43.420 -15.630 -24.169  0.00  0.00    +0.000 C 
ATOM     10  C   UNL     1     -42.402 -14.551 -24.211  0.00  0.00    +0.000 C 
ATOM     11  O   UNL     1     -41.690 -14.384 -25.237  0.00  0.00    +0.000 OA
ATOM     12  C   UNL     1     -42.218 -13.622 -23.049  0.00  0.00    +0.000 C 
ATOM     13  C   UNL     1     -42.598 -14.282 -21.725  0.00  0.00    +0.000 C 
ATOM     14  C   UNL     1     -42.642 -13.218 -20.650  0.00  0.00    +0.000 C 
ATOM     15  C   UNL     1     -41.559 -15.320 -21.330  0.00  0.00    +0.000 C 
ATOM     16  C   UNL     1     -43.982 -14.926 -21.833  0.00  0.00    +0.000 C 
ATOM     17  H   UNL     1     -46.552 -19.264 -23.302  0.00  0.00    +0.000 HD
ATOM     18  H   UNL     1     -45.575 -17.064 -22.074  0.00  0.00    +0.000 HD
ENDROOT
BRANCH   1  29
ATOM     19  C   UNL     1     -42.126 -16.643 -28.062  0.00  0.00    +0.000 C 
ATOM     20  C   UNL     1     -43.333 -15.790 -27.864  0.00  0.00    +0.000 A 
ATOM     21  N   UNL     1     -43.778 -15.044 -28.910  0.00  0.00    +0.000 NA
ATOM     22  C   UNL     1     -44.866 -14.243 -28.795  0.00  0.00    +0.000 A 
ATOM     23  C   UNL     1     -45.310 -13.483 -29.881  0.00  0.00    +0.000 A 
ATOM     24  C   UNL     1     -46.434 -12.661 -29.743  0.00  0.00    +0.000 A 
ATOM     25  C   UNL     1     -47.114 -12.599 -28.521  0.00  0.00    +0.000 A 
ATOM     26  C   UNL     1     -46.674 -13.359 -27.432  0.00  0.00    +0.000 A 
ATOM     27  C   UNL     1     -45.551 -14.180 -27.567  0.00  0.00    +0.000 A 
ATOM     28  N   UNL     1     -45.110 -14.923 -26.520  0.00  0.00    +0.000 NA
ATOM     29  C   UNL     1     -44.021 -15.731 -26.629  0.00  0.00    +0.000 A 
ENDBRANCH   1  29
BRANCH   3  30
ATOM     30  O   UNL     1     -44.522 -19.006 -27.219  0.00  0.00    +0.000 OA
ATOM     31  H   UNL     1     -44.700 -18.396 -27.907  0.00  0.00    +0.000 HD
ENDBRANCH   3  30
TORSDOF 2
ENDMDL
