MODEL 1
REMARK VINA RESULT:      -6.2      0.000      0.000
REMARK  Name = ZINC000003831424 ZINC03831424 PubChem-6328150
REMARK  9 active torsions:
REMARK  status: ('A' for Active; 'I' for Inactive)
REMARK    1  A    between atoms: N_9  and  C_20
REMARK    2  A    between atoms: C_20  and  C_21
REMARK    3  A    between atoms: C_21  and  O_22
REMARK    4  A    between atoms: C_21  and  C_24
REMARK    5  A    between atoms: C_24  and  O_25
REMARK    6  A    between atoms: C_24  and  C_27
REMARK    7  A    between atoms: C_27  and  O_28
REMARK    8  A    between atoms: C_27  and  C_30
REMARK    9  A    between atoms: C_30  and  O_31
REMARK                            x       y       z     vdW  Elec       q    Type
REMARK                         _______ _______ _______ _____ _____    ______ ____
ROOT
ATOM      1  C   UNL     1     -47.341 -13.782 -20.348  0.00  0.00    +0.000 C 
ATOM      2  C   UNL     1     -46.604 -15.076 -20.406  0.00  0.00    +0.000 A 
ATOM      3  C   UNL     1     -46.055 -15.480 -21.625  0.00  0.00    +0.000 A 
ATOM      4  C   UNL     1     -45.353 -16.685 -21.725  0.00  0.00    +0.000 A 
ATOM      5  C   UNL     1     -45.184 -17.509 -20.580  0.00  0.00    +0.000 A 
ATOM      6  C   UNL     1     -45.755 -17.095 -19.365  0.00  0.00    +0.000 A 
ATOM      7  C   UNL     1     -46.457 -15.891 -19.271  0.00  0.00    +0.000 A 
ATOM      8  C   UNL     1     -47.032 -15.501 -17.950  0.00  0.00    +0.000 C 
ATOM      9  N   UNL     1     -44.488 -18.692 -20.672  0.00  0.00    +0.000 N 
ATOM     10  C   UNL     1     -44.002 -19.096 -21.884  0.00  0.00    +0.000 A 
ATOM     11  N   UNL     1     -43.355 -20.282 -22.040  0.00  0.00    +0.000 NA
ATOM     12  C   UNL     1     -42.873 -20.663 -23.253  0.00  0.00    +0.000 A 
ATOM     13  O   UNL     1     -42.275 -21.765 -23.368  0.00  0.00    +0.000 OA
ATOM     14  N   UNL     1     -43.029 -19.865 -24.346  0.00  0.00    +0.000 N 
ATOM     15  C   UNL     1     -43.668 -18.666 -24.279  0.00  0.00    +0.000 A 
ATOM     16  O   UNL     1     -43.793 -17.965 -25.318  0.00  0.00    +0.000 OA
ATOM     17  C   UNL     1     -44.184 -18.231 -23.060  0.00  0.00    +0.000 A 
ATOM     18  N   UNL     1     -44.850 -17.061 -22.928  0.00  0.00    +0.000 NA
ATOM     19  H   UNL     1     -42.667 -20.164 -25.211  0.00  0.00    +0.000 HD
ENDROOT
BRANCH   9  20
ATOM     20  C   UNL     1     -44.281 -19.542 -19.491  0.00  0.00    +0.000 C 
BRANCH  20  21
ATOM     21  C   UNL     1     -42.886 -19.364 -18.874  0.00  0.00    +0.000 C 
BRANCH  21  22
ATOM     22  O   UNL     1     -42.894 -18.335 -17.929  0.00  0.00    +0.000 OA
ATOM     23  H   UNL     1     -43.637 -17.737 -18.108  0.00  0.00    +0.000 HD
ENDBRANCH  21  22
BRANCH  21  24
ATOM     24  C   UNL     1     -42.354 -20.660 -18.264  0.00  0.00    +0.000 C 
BRANCH  24  25
ATOM     25  O   UNL     1     -43.343 -21.648 -18.305  0.00  0.00    +0.000 OA
ATOM     26  H   UNL     1     -44.091 -21.381 -17.746  0.00  0.00    +0.000 HD
ENDBRANCH  24  25
BRANCH  24  27
ATOM     27  C   UNL     1     -41.099 -21.146 -18.987  0.00  0.00    +0.000 C 
BRANCH  27  28
ATOM     28  O   UNL     1     -40.809 -20.322 -20.078  0.00  0.00    +0.000 OA
ATOM     29  H   UNL     1     -40.226 -19.600 -19.792  0.00  0.00    +0.000 HD
ENDBRANCH  27  28
BRANCH  27  30
ATOM     30  C   UNL     1     -41.281 -22.579 -19.452  0.00  0.00    +0.000 C 
BRANCH  30  31
ATOM     31  O   UNL     1     -41.754 -22.596 -20.765  0.00  0.00    +0.000 OA
ATOM     32  H   UNL     1     -42.669 -22.275 -20.783  0.00  0.00    +0.000 HD
ENDBRANCH  30  31
ENDBRANCH  27  30
ENDBRANCH  24  27
ENDBRANCH  21  24
ENDBRANCH  20  21
ENDBRANCH   9  20
TORSDOF 9
ENDMDL
MODEL 2
REMARK VINA RESULT:      -6.0     12.618     16.433
REMARK  Name = ZINC000003831424 ZINC03831424 PubChem-6328150
REMARK  9 active torsions:
REMARK  status: ('A' for Active; 'I' for Inactive)
REMARK    1  A    between atoms: N_9  and  C_20
REMARK    2  A    between atoms: C_20  and  C_21
REMARK    3  A    between atoms: C_21  and  O_22
REMARK    4  A    between atoms: C_21  and  C_24
REMARK    5  A    between atoms: C_24  and  O_25
REMARK    6  A    between atoms: C_24  and  C_27
REMARK    7  A    between atoms: C_27  and  O_28
REMARK    8  A    between atoms: C_27  and  C_30
REMARK    9  A    between atoms: C_30  and  O_31
REMARK                            x       y       z     vdW  Elec       q    Type
REMARK                         _______ _______ _______ _____ _____    ______ ____
ROOT
ATOM      1  C   UNL     1     -47.306  -3.054 -23.249  0.00  0.00    +0.000 C 
ATOM      2  C   UNL     1     -47.183  -3.709 -24.582  0.00  0.00    +0.000 A 
ATOM      3  C   UNL     1     -46.930  -5.081 -24.634  0.00  0.00    +0.000 A 
ATOM      4  C   UNL     1     -46.809  -5.736 -25.863  0.00  0.00    +0.000 A 
ATOM      5  C   UNL     1     -46.952  -5.010 -27.076  0.00  0.00    +0.000 A 
ATOM      6  C   UNL     1     -47.191  -3.629 -27.006  0.00  0.00    +0.000 A 
ATOM      7  C   UNL     1     -47.309  -2.978 -25.776  0.00  0.00    +0.000 A 
ATOM      8  C   UNL     1     -47.573  -1.509 -25.767  0.00  0.00    +0.000 C 
ATOM      9  N   UNL     1     -46.841  -5.653 -28.287  0.00  0.00    +0.000 N 
ATOM     10  C   UNL     1     -46.543  -6.987 -28.319  0.00  0.00    +0.000 A 
ATOM     11  N   UNL     1     -46.368  -7.657 -29.489  0.00  0.00    +0.000 NA
ATOM     12  C   UNL     1     -46.078  -8.985 -29.500  0.00  0.00    +0.000 A 
ATOM     13  O   UNL     1     -45.925  -9.581 -30.598  0.00  0.00    +0.000 OA
ATOM     14  N   UNL     1     -45.953  -9.679 -28.334  0.00  0.00    +0.000 N 
ATOM     15  C   UNL     1     -46.105  -9.085 -27.120  0.00  0.00    +0.000 A 
ATOM     16  O   UNL     1     -45.974  -9.767 -26.070  0.00  0.00    +0.000 OA
ATOM     17  C   UNL     1     -46.399  -7.725 -27.055  0.00  0.00    +0.000 A 
ATOM     18  N   UNL     1     -46.542  -7.067 -25.881  0.00  0.00    +0.000 NA
ATOM     19  H   UNL     1     -45.746 -10.640 -28.371  0.00  0.00    +0.000 HD
ENDROOT
BRANCH   9  20
ATOM     20  C   UNL     1     -47.013  -4.921 -29.550  0.00  0.00    +0.000 C 
BRANCH  20  21
ATOM     21  C   UNL     1     -45.698  -4.313 -30.062  0.00  0.00    +0.000 C 
BRANCH  21  22
ATOM     22  O   UNL     1     -44.752  -5.313 -30.298  0.00  0.00    +0.000 OA
ATOM     23  H   UNL     1     -44.780  -5.569 -31.234  0.00  0.00    +0.000 HD
ENDBRANCH  21  22
BRANCH  21  24
ATOM     24  C   UNL     1     -45.905  -3.454 -31.309  0.00  0.00    +0.000 C 
BRANCH  24  25
ATOM     25  O   UNL     1     -47.184  -2.888 -31.290  0.00  0.00    +0.000 OA
ATOM     26  H   UNL     1     -47.137  -1.991 -30.923  0.00  0.00    +0.000 HD
ENDBRANCH  24  25
BRANCH  24  27
ATOM     27  C   UNL     1     -44.849  -2.356 -31.415  0.00  0.00    +0.000 C 
BRANCH  27  28
ATOM     28  O   UNL     1     -45.308  -1.172 -30.831  0.00  0.00    +0.000 OA
ATOM     29  H   UNL     1     -44.698  -0.448 -31.044  0.00  0.00    +0.000 HD
ENDBRANCH  27  28
BRANCH  27  30
ATOM     30  C   UNL     1     -44.486  -2.112 -32.869  0.00  0.00    +0.000 C 
BRANCH  30  31
ATOM     31  O   UNL     1     -45.626  -2.218 -33.666  0.00  0.00    +0.000 OA
ATOM     32  H   UNL     1     -45.386  -2.600 -34.524  0.00  0.00    +0.000 HD
ENDBRANCH  30  31
ENDBRANCH  27  30
ENDBRANCH  24  27
ENDBRANCH  21  24
ENDBRANCH  20  21
ENDBRANCH   9  20
TORSDOF 9
ENDMDL
MODEL 3
REMARK VINA RESULT:      -5.5     13.582     17.151
REMARK  Name = ZINC000003831424 ZINC03831424 PubChem-6328150
REMARK  9 active torsions:
REMARK  status: ('A' for Active; 'I' for Inactive)
REMARK    1  A    between atoms: N_9  and  C_20
REMARK    2  A    between atoms: C_20  and  C_21
REMARK    3  A    between atoms: C_21  and  O_22
REMARK    4  A    between atoms: C_21  and  C_24
REMARK    5  A    between atoms: C_24  and  O_25
REMARK    6  A    between atoms: C_24  and  C_27
REMARK    7  A    between atoms: C_27  and  O_28
REMARK    8  A    between atoms: C_27  and  C_30
REMARK    9  A    between atoms: C_30  and  O_31
REMARK                            x       y       z     vdW  Elec       q    Type
REMARK                         _______ _______ _______ _____ _____    ______ ____
ROOT
ATOM      1  C   UNL     1     -46.535  -5.615 -24.815  0.00  0.00    +0.000 C 
ATOM      2  C   UNL     1     -46.685  -5.659 -26.298  0.00  0.00    +0.000 A 
ATOM      3  C   UNL     1     -46.432  -6.861 -26.961  0.00  0.00    +0.000 A 
ATOM      4  C   UNL     1     -46.563  -6.949 -28.350  0.00  0.00    +0.000 A 
ATOM      5  C   UNL     1     -46.965  -5.813 -29.103  0.00  0.00    +0.000 A 
ATOM      6  C   UNL     1     -47.201  -4.608 -28.422  0.00  0.00    +0.000 A 
ATOM      7  C   UNL     1     -47.068  -4.524 -27.034  0.00  0.00    +0.000 A 
ATOM      8  C   UNL     1     -47.342  -3.218 -26.367  0.00  0.00    +0.000 C 
ATOM      9  N   UNL     1     -47.102  -5.898 -30.468  0.00  0.00    +0.000 N 
ATOM     10  C   UNL     1     -46.800  -7.068 -31.106  0.00  0.00    +0.000 A 
ATOM     11  N   UNL     1     -46.866  -7.188 -32.459  0.00  0.00    +0.000 NA
ATOM     12  C   UNL     1     -46.568  -8.364 -33.074  0.00  0.00    +0.000 A 
ATOM     13  O   UNL     1     -46.640  -8.447 -34.327  0.00  0.00    +0.000 OA
ATOM     14  N   UNL     1     -46.193  -9.454 -32.347  0.00  0.00    +0.000 N 
ATOM     15  C   UNL     1     -46.096  -9.419 -30.991  0.00  0.00    +0.000 A 
ATOM     16  O   UNL     1     -45.740 -10.450 -30.363  0.00  0.00    +0.000 OA
ATOM     17  C   UNL     1     -46.387  -8.237 -30.313  0.00  0.00    +0.000 A 
ATOM     18  N   UNL     1     -46.289  -8.126 -28.968  0.00  0.00    +0.000 NA
ATOM     19  H   UNL     1     -45.986 -10.293 -32.818  0.00  0.00    +0.000 HD
ENDROOT
BRANCH   9  20
ATOM     20  C   UNL     1     -47.543  -4.738 -31.258  0.00  0.00    +0.000 C 
BRANCH  20  21
ATOM     21  C   UNL     1     -46.448  -4.217 -32.200  0.00  0.00    +0.000 C 
BRANCH  21  22
ATOM     22  O   UNL     1     -46.775  -4.487 -33.531  0.00  0.00    +0.000 OA
ATOM     23  H   UNL     1     -45.966  -4.692 -34.027  0.00  0.00    +0.000 HD
ENDBRANCH  21  22
BRANCH  21  24
ATOM     24  C   UNL     1     -46.173  -2.727 -31.998  0.00  0.00    +0.000 C 
BRANCH  24  25
ATOM     25  O   UNL     1     -45.948  -2.463 -30.644  0.00  0.00    +0.000 OA
ATOM     26  H   UNL     1     -46.719  -2.006 -30.270  0.00  0.00    +0.000 HD
ENDBRANCH  24  25
BRANCH  24  27
ATOM     27  C   UNL     1     -44.978  -2.260 -32.828  0.00  0.00    +0.000 C 
BRANCH  27  28
ATOM     28  O   UNL     1     -44.332  -3.350 -33.418  0.00  0.00    +0.000 OA
ATOM     29  H   UNL     1     -43.924  -3.071 -34.253  0.00  0.00    +0.000 HD
ENDBRANCH  27  28
BRANCH  27  30
ATOM     30  C   UNL     1     -44.004  -1.487 -31.958  0.00  0.00    +0.000 C 
BRANCH  30  31
ATOM     31  O   UNL     1     -44.487  -0.197 -31.735  0.00  0.00    +0.000 OA
ATOM     32  H   UNL     1     -43.891   0.447 -32.146  0.00  0.00    +0.000 HD
ENDBRANCH  30  31
ENDBRANCH  27  30
ENDBRANCH  24  27
ENDBRANCH  21  24
ENDBRANCH  20  21
ENDBRANCH   9  20
TORSDOF 9
ENDMDL
