MODEL 1
REMARK VINA RESULT:      -6.9      0.000      0.000
REMARK  Name = ZINC000031809031
REMARK  1 active torsions:
REMARK  status: ('A' for Active; 'I' for Inactive)
REMARK    1  A    between atoms: C_7  and  C_24
REMARK                            x       y       z     vdW  Elec       q    Type
REMARK                         _______ _______ _______ _____ _____    ______ ____
ROOT
ATOM      1  C   UNL     1     -47.423  -4.501 -26.224  0.00  0.00    +0.000 C 
ATOM      2  C   UNL     1     -46.950  -4.752 -27.615  0.00  0.00    +0.000 A 
ATOM      3  N   UNL     1     -46.808  -3.782 -28.535  0.00  0.00    +0.000 NA
ATOM      4  N   UNL     1     -46.371  -4.348 -29.648  0.00  0.00    +0.000 N 
ATOM      5  C   UNL     1     -46.199  -5.675 -29.450  0.00  0.00    +0.000 A 
ATOM      6  C   UNL     1     -46.583  -5.978 -28.145  0.00  0.00    +0.000 A 
ATOM      7  C   UNL     1     -46.575  -7.267 -27.371  0.00  0.00    +0.000 C 
ATOM      8  S   UNL     1     -46.834  -8.772 -28.362  0.00  0.00    +0.000 S 
ATOM      9  C   UNL     1     -45.198  -8.672 -29.124  0.00  0.00    +0.000 C 
ATOM     10  C   UNL     1     -45.279  -7.921 -30.400  0.00  0.00    +0.000 C 
ATOM     11  O   UNL     1     -44.961  -8.511 -31.463  0.00  0.00    +0.000 OA
ATOM     12  N   UNL     1     -45.667  -6.545 -30.464  0.00  0.00    +0.000 N 
ATOM     13  H   UNL     1     -45.552  -6.126 -31.347  0.00  0.00    +0.000 HD
ATOM     14  C   UNL     1     -46.080  -3.595 -30.834  0.00  0.00    +0.000 A 
ATOM     15  N   UNL     1     -45.550  -2.338 -30.734  0.00  0.00    +0.000 NA
ATOM     16  C   UNL     1     -45.287  -1.580 -31.846  0.00  0.00    +0.000 A 
ATOM     17  N   UNL     1     -45.564  -2.062 -33.095  0.00  0.00    +0.000 NA
ATOM     18  C   UNL     1     -46.101  -3.301 -33.196  0.00  0.00    +0.000 A 
ATOM     19  N   UNL     1     -46.490  -3.913 -34.321  0.00  0.00    +0.000 N 
ATOM     20  C   UNL     1     -47.008  -5.081 -33.854  0.00  0.00    +0.000 A 
ATOM     21  N   UNL     1     -46.957  -5.206 -32.499  0.00  0.00    +0.000 NA
ATOM     22  C   UNL     1     -46.367  -4.066 -32.116  0.00  0.00    +0.000 A 
ATOM     23  H   UNL     1     -46.419  -3.597 -35.250  0.00  0.00    +0.000 HD
ENDROOT
BRANCH   7  24
ATOM     24  C   UNL     1     -45.466  -7.377 -26.357  0.00  0.00    +0.000 A 
ATOM     25  C   UNL     1     -44.154  -7.003 -26.694  0.00  0.00    +0.000 A 
ATOM     26  C   UNL     1     -43.126  -7.100 -25.754  0.00  0.00    +0.000 A 
ATOM     27  C   UNL     1     -43.399  -7.572 -24.468  0.00  0.00    +0.000 A 
ATOM     28  F   UNL     1     -42.402  -7.667 -23.556  0.00  0.00    +0.000 F 
ATOM     29  C   UNL     1     -44.700  -7.944 -24.123  0.00  0.00    +0.000 A 
ATOM     30  C   UNL     1     -45.734  -7.850 -25.058  0.00  0.00    +0.000 A 
ATOM     31 CL   UNL     1     -47.354  -8.322 -24.567  0.00  0.00    +0.000 Cl
ENDBRANCH   7  24
TORSDOF 1
ENDMDL
MODEL 2
REMARK VINA RESULT:      -6.9      5.366      7.322
REMARK  Name = ZINC000031809031
REMARK  1 active torsions:
REMARK  status: ('A' for Active; 'I' for Inactive)
REMARK    1  A    between atoms: C_7  and  C_24
REMARK                            x       y       z     vdW  Elec       q    Type
REMARK                         _______ _______ _______ _____ _____    ______ ____
ROOT
ATOM      1  C   UNL     1     -47.230  -3.368 -33.703  0.00  0.00    +0.000 C 
ATOM      2  C   UNL     1     -46.552  -4.691 -33.806  0.00  0.00    +0.000 A 
ATOM      3  N   UNL     1     -46.870  -5.615 -34.729  0.00  0.00    +0.000 NA
ATOM      4  N   UNL     1     -46.078  -6.659 -34.538  0.00  0.00    +0.000 N 
ATOM      5  C   UNL     1     -45.227  -6.407 -33.518  0.00  0.00    +0.000 A 
ATOM      6  C   UNL     1     -45.518  -5.144 -33.005  0.00  0.00    +0.000 A 
ATOM      7  C   UNL     1     -44.884  -4.340 -31.904  0.00  0.00    +0.000 C 
ATOM      8  S   UNL     1     -44.166  -5.312 -30.543  0.00  0.00    +0.000 S 
ATOM      9  C   UNL     1     -42.785  -5.892 -31.554  0.00  0.00    +0.000 C 
ATOM     10  C   UNL     1     -43.129  -7.190 -32.185  0.00  0.00    +0.000 C 
ATOM     11  O   UNL     1     -42.427  -8.195 -31.907  0.00  0.00    +0.000 OA
ATOM     12  N   UNL     1     -44.201  -7.333 -33.123  0.00  0.00    +0.000 N 
ATOM     13  H   UNL     1     -44.242  -8.209 -33.569  0.00  0.00    +0.000 HD
ATOM     14  C   UNL     1     -46.125  -7.825 -35.373  0.00  0.00    +0.000 A 
ATOM     15  N   UNL     1     -46.388  -7.701 -36.709  0.00  0.00    +0.000 NA
ATOM     16  C   UNL     1     -46.468  -8.798 -37.529  0.00  0.00    +0.000 A 
ATOM     17  N   UNL     1     -46.301 -10.056 -37.022  0.00  0.00    +0.000 NA
ATOM     18  C   UNL     1     -46.053 -10.182 -35.696  0.00  0.00    +0.000 A 
ATOM     19  N   UNL     1     -45.920 -11.326 -35.015  0.00  0.00    +0.000 N 
ATOM     20  C   UNL     1     -45.756 -10.888 -33.737  0.00  0.00    +0.000 A 
ATOM     21  N   UNL     1     -45.789  -9.532 -33.609  0.00  0.00    +0.000 NA
ATOM     22  C   UNL     1     -45.968  -9.117 -34.871  0.00  0.00    +0.000 A 
ATOM     23  H   UNL     1     -45.935 -12.250 -35.352  0.00  0.00    +0.000 HD
ENDROOT
BRANCH   7  24
ATOM     24  C   UNL     1     -44.013  -3.208 -32.382  0.00  0.00    +0.000 A 
ATOM     25  C   UNL     1     -42.974  -3.447 -33.297  0.00  0.00    +0.000 A 
ATOM     26  C   UNL     1     -42.168  -2.399 -33.745  0.00  0.00    +0.000 A 
ATOM     27  C   UNL     1     -42.393  -1.100 -33.284  0.00  0.00    +0.000 A 
ATOM     28  F   UNL     1     -41.611  -0.082 -33.717  0.00  0.00    +0.000 F 
ATOM     29  C   UNL     1     -43.425  -0.851 -32.376  0.00  0.00    +0.000 A 
ATOM     30  C   UNL     1     -44.236  -1.895 -31.923  0.00  0.00    +0.000 A 
ATOM     31 CL   UNL     1     -45.526  -1.524 -30.789  0.00  0.00    +0.000 Cl
ENDBRANCH   7  24
TORSDOF 1
ENDMDL
MODEL 3
REMARK VINA RESULT:      -6.8      3.334      4.465
REMARK  Name = ZINC000031809031
REMARK  1 active torsions:
REMARK  status: ('A' for Active; 'I' for Inactive)
REMARK    1  A    between atoms: C_7  and  C_24
REMARK                            x       y       z     vdW  Elec       q    Type
REMARK                         _______ _______ _______ _____ _____    ______ ____
ROOT
ATOM      1  C   UNL     1     -42.936  -7.008 -27.650  0.00  0.00    +0.000 C 
ATOM      2  C   UNL     1     -43.261  -6.225 -28.876  0.00  0.00    +0.000 A 
ATOM      3  N   UNL     1     -42.328  -5.722 -29.702  0.00  0.00    +0.000 NA
ATOM      4  N   UNL     1     -42.958  -5.093 -30.681  0.00  0.00    +0.000 N 
ATOM      5  C   UNL     1     -44.296  -5.212 -30.515  0.00  0.00    +0.000 A 
ATOM      6  C   UNL     1     -44.531  -5.925 -29.341  0.00  0.00    +0.000 A 
ATOM      7  C   UNL     1     -45.804  -6.380 -28.683  0.00  0.00    +0.000 C 
ATOM      8  S   UNL     1     -47.244  -5.298 -28.943  0.00  0.00    +0.000 S 
ATOM      9  C   UNL     1     -47.416  -5.777 -30.677  0.00  0.00    +0.000 C 
ATOM     10  C   UNL     1     -46.662  -4.835 -31.539  0.00  0.00    +0.000 C 
ATOM     11  O   UNL     1     -47.296  -4.167 -32.394  0.00  0.00    +0.000 OA
ATOM     12  N   UNL     1     -45.241  -4.686 -31.463  0.00  0.00    +0.000 N 
ATOM     13  H   UNL     1     -44.846  -4.134 -32.175  0.00  0.00    +0.000 HD
ATOM     14  C   UNL     1     -42.263  -4.459 -31.765  0.00  0.00    +0.000 A 
ATOM     15  N   UNL     1     -41.111  -5.011 -32.255  0.00  0.00    +0.000 NA
ATOM     16  C   UNL     1     -40.407  -4.415 -33.270  0.00  0.00    +0.000 A 
ATOM     17  N   UNL     1     -40.835  -3.236 -33.812  0.00  0.00    +0.000 NA
ATOM     18  C   UNL     1     -41.968  -2.682 -33.319  0.00  0.00    +0.000 A 
ATOM     19  N   UNL     1     -42.506  -1.511 -33.681  0.00  0.00    +0.000 N 
ATOM     20  C   UNL     1     -43.573  -1.408 -32.842  0.00  0.00    +0.000 A 
ATOM     21  N   UNL     1     -43.705  -2.458 -31.985  0.00  0.00    +0.000 NA
ATOM     22  C   UNL     1     -42.679  -3.250 -32.322  0.00  0.00    +0.000 A 
ATOM     23  H   UNL     1     -42.207  -0.884 -34.377  0.00  0.00    +0.000 HD
ENDROOT
BRANCH   7  24
ATOM     24  C   UNL     1     -46.097  -7.849 -28.843  0.00  0.00    +0.000 A 
ATOM     25  C   UNL     1     -45.925  -8.478 -30.087  0.00  0.00    +0.000 A 
ATOM     26  C   UNL     1     -46.192  -9.841 -30.236  0.00  0.00    +0.000 A 
ATOM     27  C   UNL     1     -46.631 -10.589 -29.142  0.00  0.00    +0.000 A 
ATOM     28  F   UNL     1     -46.891 -11.910 -29.286  0.00  0.00    +0.000 F 
ATOM     29  C   UNL     1     -46.803  -9.974 -27.899  0.00  0.00    +0.000 A 
ATOM     30  C   UNL     1     -46.538  -8.610 -27.743  0.00  0.00    +0.000 A 
ATOM     31 CL   UNL     1     -46.761  -7.890 -26.156  0.00  0.00    +0.000 Cl
ENDBRANCH   7  24
TORSDOF 1
ENDMDL
