MODEL 1
REMARK VINA RESULT:      -6.8      0.000      0.000
REMARK  Name = ZINC000224489095
REMARK  3 active torsions:
REMARK  status: ('A' for Active; 'I' for Inactive)
REMARK    1  A    between atoms: C_1  and  C_25
REMARK    2  A    between atoms: N_3  and  C_5
REMARK    3  A    between atoms: N_27  and  S_28
REMARK                            x       y       z     vdW  Elec       q    Type
REMARK                         _______ _______ _______ _____ _____    ______ ____
ROOT
ATOM      1  C   UNL     1     -42.974  -7.418 -32.567  0.00  0.00    +0.000 C 
ATOM      2  O   UNL     1     -42.816  -8.635 -32.850  0.00  0.00    +0.000 OA
ATOM      3  N   UNL     1     -42.678  -6.432 -33.565  0.00  0.00    +0.000 N 
ATOM      4  H   UNL     1     -42.553  -6.760 -34.486  0.00  0.00    +0.000 HD
ENDROOT
BRANCH   3   5
ATOM      5  C   UNL     1     -42.546  -5.014 -33.367  0.00  0.00    +0.000 A 
ATOM      6  C   UNL     1     -41.277  -4.407 -33.176  0.00  0.00    +0.000 A 
ATOM      7  C   UNL     1     -41.149  -3.014 -32.997  0.00  0.00    +0.000 A 
ATOM      8  C   UNL     1     -42.308  -2.239 -33.020  0.00  0.00    +0.000 A 
ATOM      9  C   UNL     1     -43.515  -2.825 -33.214  0.00  0.00    +0.000 A 
ATOM     10  C   UNL     1     -44.533  -1.927 -33.211  0.00  0.00    +0.000 A 
ATOM     11  C   UNL     1     -45.850  -2.358 -33.393  0.00  0.00    +0.000 A 
ATOM     12  C   UNL     1     -46.081  -3.738 -33.582  0.00  0.00    +0.000 A 
ATOM     13  C   UNL     1     -45.006  -4.658 -33.583  0.00  0.00    +0.000 A 
ATOM     14  C   UNL     1     -43.692  -4.193 -33.393  0.00  0.00    +0.000 A 
ATOM     15  C   UNL     1     -44.004  -0.546 -32.991  0.00  0.00    +0.000 C 
ATOM     16  C   UNL     1     -42.468  -0.760 -32.868  0.00  0.00    +0.000 C 
ENDBRANCH   3   5
BRANCH   1  25
ATOM     17  C   UNL     1     -41.214  -6.623 -25.486  0.00  0.00    +0.000 C 
ATOM     18  C   UNL     1     -42.248  -6.869 -26.525  0.00  0.00    +0.000 A 
ATOM     19  C   UNL     1     -43.574  -7.111 -26.150  0.00  0.00    +0.000 A 
ATOM     20  C   UNL     1     -44.546  -7.348 -27.124  0.00  0.00    +0.000 A 
ATOM     21  C   UNL     1     -44.198  -7.340 -28.481  0.00  0.00    +0.000 A 
ATOM     22  C   UNL     1     -42.867  -7.079 -28.855  0.00  0.00    +0.000 A 
ATOM     23  C   UNL     1     -41.894  -6.853 -27.878  0.00  0.00    +0.000 A 
ATOM     24  O   UNL     1     -42.524  -7.051 -30.212  0.00  0.00    +0.000 OA
ATOM     25  C   UNL     1     -43.531  -7.036 -31.228  0.00  0.00    +0.000 C 
ATOM     26  C   UNL     1     -44.684  -7.962 -30.846  0.00  0.00    +0.000 C 
ATOM     27  N   UNL     1     -45.163  -7.611 -29.512  0.00  0.00    +0.000 N 
BRANCH  27  28
ATOM     28  S   UNL     1     -46.872  -7.464 -29.241  0.00  0.00    +0.000 S 
ATOM     29  C   UNL     1     -47.755  -7.722 -30.764  0.00  0.00    +0.000 C 
ATOM     30  O   UNL     1     -47.180  -6.097 -28.696  0.00  0.00    +0.000 OA
ATOM     31  O   UNL     1     -47.317  -8.501 -28.249  0.00  0.00    +0.000 OA
ENDBRANCH  27  28
ENDBRANCH   1  25
TORSDOF 3
ENDMDL
MODEL 2
REMARK VINA RESULT:      -6.8     10.867     15.696
REMARK  Name = ZINC000224489095
REMARK  3 active torsions:
REMARK  status: ('A' for Active; 'I' for Inactive)
REMARK    1  A    between atoms: C_1  and  C_25
REMARK    2  A    between atoms: N_3  and  C_5
REMARK    3  A    between atoms: N_27  and  S_28
REMARK                            x       y       z     vdW  Elec       q    Type
REMARK                         _______ _______ _______ _____ _____    ______ ____
ROOT
ATOM      1  C   UNL     1     -46.700 -14.285 -20.902  0.00  0.00    +0.000 C 
ATOM      2  O   UNL     1     -47.630 -13.436 -20.934  0.00  0.00    +0.000 OA
ATOM      3  N   UNL     1     -46.461 -15.003 -19.683  0.00  0.00    +0.000 N 
ATOM      4  H   UNL     1     -47.157 -14.939 -18.990  0.00  0.00    +0.000 HD
ENDROOT
BRANCH   3   5
ATOM      5  C   UNL     1     -45.312 -15.807 -19.367  0.00  0.00    +0.000 A 
ATOM      6  C   UNL     1     -44.049 -15.220 -19.093  0.00  0.00    +0.000 A 
ATOM      7  C   UNL     1     -42.927 -16.011 -18.767  0.00  0.00    +0.000 A 
ATOM      8  C   UNL     1     -43.092 -17.395 -18.710  0.00  0.00    +0.000 A 
ATOM      9  C   UNL     1     -44.304 -17.946 -18.963  0.00  0.00    +0.000 A 
ATOM     10  C   UNL     1     -44.288 -19.300 -18.862  0.00  0.00    +0.000 A 
ATOM     11  C   UNL     1     -45.453 -20.035 -19.094  0.00  0.00    +0.000 A 
ATOM     12  C   UNL     1     -46.632 -19.331 -19.427  0.00  0.00    +0.000 A 
ATOM     13  C   UNL     1     -46.628 -17.920 -19.525  0.00  0.00    +0.000 A 
ATOM     14  C   UNL     1     -45.438 -17.209 -19.290  0.00  0.00    +0.000 A 
ATOM     15  C   UNL     1     -42.917 -19.775 -18.500  0.00  0.00    +0.000 C 
ATOM     16  C   UNL     1     -42.095 -18.460 -18.387  0.00  0.00    +0.000 C 
ENDBRANCH   3   5
BRANCH   1  25
ATOM     17  C   UNL     1     -45.494 -11.934 -27.749  0.00  0.00    +0.000 C 
ATOM     18  C   UNL     1     -45.490 -13.044 -26.761  0.00  0.00    +0.000 A 
ATOM     19  C   UNL     1     -45.140 -14.337 -27.163  0.00  0.00    +0.000 A 
ATOM     20  C   UNL     1     -45.141 -15.384 -26.237  0.00  0.00    +0.000 A 
ATOM     21  C   UNL     1     -45.490 -15.141 -24.902  0.00  0.00    +0.000 A 
ATOM     22  C   UNL     1     -45.825 -13.835 -24.498  0.00  0.00    +0.000 A 
ATOM     23  C   UNL     1     -45.833 -12.792 -25.429  0.00  0.00    +0.000 A 
ATOM     24  O   UNL     1     -46.154 -13.589 -23.160  0.00  0.00    +0.000 OA
ATOM     25  C   UNL     1     -45.920 -14.574 -22.149  0.00  0.00    +0.000 C 
ATOM     26  C   UNL     1     -46.256 -15.967 -22.678  0.00  0.00    +0.000 C 
ATOM     27  N   UNL     1     -45.535 -16.196 -23.927  0.00  0.00    +0.000 N 
BRANCH  27  28
ATOM     28  S   UNL     1     -44.700 -17.702 -24.155  0.00  0.00    +0.000 S 
ATOM     29  C   UNL     1     -44.660 -18.613 -22.627  0.00  0.00    +0.000 C 
ATOM     30  O   UNL     1     -43.299 -17.434 -24.630  0.00  0.00    +0.000 OA
ATOM     31  O   UNL     1     -45.420 -18.527 -25.185  0.00  0.00    +0.000 OA
ENDBRANCH  27  28
ENDBRANCH   1  25
TORSDOF 3
ENDMDL
MODEL 3
REMARK VINA RESULT:      -6.7      4.392      6.644
REMARK  Name = ZINC000224489095
REMARK  3 active torsions:
REMARK  status: ('A' for Active; 'I' for Inactive)
REMARK    1  A    between atoms: C_1  and  C_25
REMARK    2  A    between atoms: N_3  and  C_5
REMARK    3  A    between atoms: N_27  and  S_28
REMARK                            x       y       z     vdW  Elec       q    Type
REMARK                         _______ _______ _______ _____ _____    ______ ____
ROOT
ATOM      1  C   UNL     1     -42.452  -6.776 -34.853  0.00  0.00    +0.000 C 
ATOM      2  O   UNL     1     -41.416  -7.138 -34.237  0.00  0.00    +0.000 OA
ATOM      3  N   UNL     1     -43.063  -7.688 -35.777  0.00  0.00    +0.000 N 
ATOM      4  H   UNL     1     -42.755  -8.623 -35.740  0.00  0.00    +0.000 HD
ENDROOT
BRANCH   3   5
ATOM      5  C   UNL     1     -44.076  -7.384 -36.750  0.00  0.00    +0.000 A 
ATOM      6  C   UNL     1     -45.456  -7.538 -36.454  0.00  0.00    +0.000 A 
ATOM      7  C   UNL     1     -46.450  -7.224 -37.406  0.00  0.00    +0.000 A 
ATOM      8  C   UNL     1     -46.040  -6.746 -38.651  0.00  0.00    +0.000 A 
ATOM      9  C   UNL     1     -44.721  -6.592 -38.920  0.00  0.00    +0.000 A 
ATOM     10  C   UNL     1     -44.501  -6.116 -40.172  0.00  0.00    +0.000 A 
ATOM     11  C   UNL     1     -43.195  -5.900 -40.621  0.00  0.00    +0.000 A 
ATOM     12  C   UNL     1     -42.130  -6.185 -39.740  0.00  0.00    +0.000 A 
ATOM     13  C   UNL     1     -42.380  -6.679 -38.438  0.00  0.00    +0.000 A 
ATOM     14  C   UNL     1     -43.706  -6.889 -38.017  0.00  0.00    +0.000 A 
ATOM     15  C   UNL     1     -45.800  -5.907 -40.882  0.00  0.00    +0.000 C 
ATOM     16  C   UNL     1     -46.862  -6.332 -39.829  0.00  0.00    +0.000 C 
ENDBRANCH   3   5
BRANCH   1  25
ATOM     17  C   UNL     1     -40.946  -0.105 -32.190  0.00  0.00    +0.000 C 
ATOM     18  C   UNL     1     -41.941  -1.174 -32.469  0.00  0.00    +0.000 A 
ATOM     19  C   UNL     1     -43.274  -1.008 -32.080  0.00  0.00    +0.000 A 
ATOM     20  C   UNL     1     -44.209  -2.013 -32.336  0.00  0.00    +0.000 A 
ATOM     21  C   UNL     1     -43.816  -3.191 -32.986  0.00  0.00    +0.000 A 
ATOM     22  C   UNL     1     -42.477  -3.346 -33.391  0.00  0.00    +0.000 A 
ATOM     23  C   UNL     1     -41.541  -2.343 -33.124  0.00  0.00    +0.000 A 
ATOM     24  O   UNL     1     -42.088  -4.514 -34.059  0.00  0.00    +0.000 OA
ATOM     25  C   UNL     1     -43.061  -5.438 -34.556  0.00  0.00    +0.000 C 
ATOM     26  C   UNL     1     -44.211  -5.584 -33.562  0.00  0.00    +0.000 C 
ATOM     27  N   UNL     1     -44.740  -4.262 -33.238  0.00  0.00    +0.000 N 
BRANCH  27  28
ATOM     28  S   UNL     1     -46.460  -4.017 -33.243  0.00  0.00    +0.000 S 
ATOM     29  C   UNL     1     -47.101  -4.174 -31.591  0.00  0.00    +0.000 C 
ATOM     30  O   UNL     1     -47.111  -5.030 -34.144  0.00  0.00    +0.000 OA
ATOM     31  O   UNL     1     -46.772  -2.637 -33.748  0.00  0.00    +0.000 OA
ENDBRANCH  27  28
ENDBRANCH   1  25
TORSDOF 3
ENDMDL
