MODEL 1
REMARK VINA RESULT:      -7.0      0.000      0.000
REMARK  Name = ZINC000096181314 ZINC96181314 PubChem-97457186
REMARK  3 active torsions:
REMARK  status: ('A' for Active; 'I' for Inactive)
REMARK    1  A    between atoms: C_5  and  C_8
REMARK    2  A    between atoms: C_9  and  C_13
REMARK    3  A    between atoms: C_14  and  N_23
REMARK                            x       y       z     vdW  Elec       q    Type
REMARK                         _______ _______ _______ _____ _____    ______ ____
ROOT
ATOM      1  C   UNL     1     -45.305  -5.005 -30.519  0.00  0.00    +0.000 C 
ATOM      2  C   UNL     1     -46.683  -4.640 -29.934  0.00  0.00    +0.000 C 
ATOM      3  C   UNL     1     -47.692  -5.683 -30.430  0.00  0.00    +0.000 C 
ATOM      4  C   UNL     1     -46.881  -6.545 -31.311  0.00  0.00    +0.000 C 
ATOM      5  C   UNL     1     -44.467  -6.949 -31.966  0.00  0.00    +0.000 C 
ATOM      6  O   UNL     1     -47.338  -7.546 -31.924  0.00  0.00    +0.000 OA
ATOM      7  N   UNL     1     -45.530  -6.145 -31.387  0.00  0.00    +0.000 N 
ENDROOT
BRANCH   1  12
ATOM      8  C   UNL     1     -42.994  -0.569 -33.426  0.00  0.00    +0.000 C 
ATOM      9  C   UNL     1     -43.596  -1.705 -32.682  0.00  0.00    +0.000 A 
ATOM     10  C   UNL     1     -42.781  -2.735 -32.202  0.00  0.00    +0.000 A 
ATOM     11  C   UNL     1     -43.345  -3.805 -31.502  0.00  0.00    +0.000 A 
ATOM     12  C   UNL     1     -44.726  -3.851 -31.280  0.00  0.00    +0.000 A 
ATOM     13  C   UNL     1     -45.540  -2.813 -31.760  0.00  0.00    +0.000 A 
ATOM     14  C   UNL     1     -44.975  -1.744 -32.461  0.00  0.00    +0.000 A 
ENDBRANCH   1  12
BRANCH   2  15
ATOM     15  C   UNL     1     -46.631  -4.618 -28.442  0.00  0.00    +0.000 C 
ATOM     16  O   UNL     1     -46.071  -5.571 -27.839  0.00  0.00    +0.000 OA
ATOM     17  N   UNL     1     -47.218  -3.524 -27.721  0.00  0.00    +0.000 NA
BRANCH  17  18
ATOM     18  C   UNL     1     -47.263  -3.359 -26.297  0.00  0.00    +0.000 A 
ATOM     19  C   UNL     1     -47.346  -2.091 -25.704  0.00  0.00    +0.000 A 
ATOM     20  C   UNL     1     -47.387  -1.982 -24.313  0.00  0.00    +0.000 A 
ATOM     21  C   UNL     1     -47.344  -3.133 -23.527  0.00  0.00    +0.000 A 
ATOM     22  C   UNL     1     -47.260  -4.381 -24.147  0.00  0.00    +0.000 A 
ATOM     23  C   UNL     1     -47.213  -5.617 -23.326  0.00  0.00    +0.000 C 
ATOM     24  N   UNL     1     -47.222  -4.465 -25.505  0.00  0.00    +0.000 NA
ENDBRANCH  17  18
ENDBRANCH   2  15
TORSDOF 3
ENDMDL
MODEL 2
REMARK VINA RESULT:      -6.8      2.327      6.872
REMARK  Name = ZINC000096181314 ZINC96181314 PubChem-97457186
REMARK  3 active torsions:
REMARK  status: ('A' for Active; 'I' for Inactive)
REMARK    1  A    between atoms: C_5  and  C_8
REMARK    2  A    between atoms: C_9  and  C_13
REMARK    3  A    between atoms: C_14  and  N_23
REMARK                            x       y       z     vdW  Elec       q    Type
REMARK                         _______ _______ _______ _____ _____    ______ ____
ROOT
ATOM      1  C   UNL     1     -45.804  -6.470 -28.903  0.00  0.00    +0.000 C 
ATOM      2  C   UNL     1     -44.275  -6.395 -29.079  0.00  0.00    +0.000 C 
ATOM      3  C   UNL     1     -43.773  -7.806 -29.408  0.00  0.00    +0.000 C 
ATOM      4  C   UNL     1     -44.999  -8.624 -29.345  0.00  0.00    +0.000 C 
ATOM      5  C   UNL     1     -47.513  -8.367 -29.151  0.00  0.00    +0.000 C 
ATOM      6  O   UNL     1     -45.025  -9.864 -29.563  0.00  0.00    +0.000 OA
ATOM      7  N   UNL     1     -46.151  -7.873 -29.029  0.00  0.00    +0.000 N 
ENDROOT
BRANCH   1  12
ATOM      8  C   UNL     1     -47.401  -4.302 -23.783  0.00  0.00    +0.000 C 
ATOM      9  C   UNL     1     -46.988  -4.867 -25.094  0.00  0.00    +0.000 A 
ATOM     10  C   UNL     1     -47.300  -4.187 -26.275  0.00  0.00    +0.000 A 
ATOM     11  C   UNL     1     -46.913  -4.716 -27.510  0.00  0.00    +0.000 A 
ATOM     12  C   UNL     1     -46.214  -5.928 -27.568  0.00  0.00    +0.000 A 
ATOM     13  C   UNL     1     -45.901  -6.606 -26.379  0.00  0.00    +0.000 A 
ATOM     14  C   UNL     1     -46.289  -6.076 -25.146  0.00  0.00    +0.000 A 
ENDBRANCH   1  12
BRANCH   2  15
ATOM     15  C   UNL     1     -43.918  -5.437 -30.167  0.00  0.00    +0.000 C 
ATOM     16  O   UNL     1     -42.776  -5.510 -30.692  0.00  0.00    +0.000 OA
ATOM     17  N   UNL     1     -44.871  -4.453 -30.597  0.00  0.00    +0.000 NA
BRANCH  17  18
ATOM     18  C   UNL     1     -44.683  -3.460 -31.614  0.00  0.00    +0.000 A 
ATOM     19  C   UNL     1     -45.578  -3.323 -32.685  0.00  0.00    +0.000 A 
ATOM     20  C   UNL     1     -45.351  -2.341 -33.651  0.00  0.00    +0.000 A 
ATOM     21  C   UNL     1     -44.238  -1.507 -33.543  0.00  0.00    +0.000 A 
ATOM     22  C   UNL     1     -43.366  -1.670 -32.465  0.00  0.00    +0.000 A 
ATOM     23  C   UNL     1     -42.175  -0.791 -32.334  0.00  0.00    +0.000 C 
ATOM     24  N   UNL     1     -43.606  -2.633 -31.534  0.00  0.00    +0.000 NA
ENDBRANCH  17  18
ENDBRANCH   2  15
TORSDOF 3
ENDMDL
MODEL 3
REMARK VINA RESULT:      -6.7      2.117      2.612
REMARK  Name = ZINC000096181314 ZINC96181314 PubChem-97457186
REMARK  3 active torsions:
REMARK  status: ('A' for Active; 'I' for Inactive)
REMARK    1  A    between atoms: C_5  and  C_8
REMARK    2  A    between atoms: C_9  and  C_13
REMARK    3  A    between atoms: C_14  and  N_23
REMARK                            x       y       z     vdW  Elec       q    Type
REMARK                         _______ _______ _______ _____ _____    ______ ____
ROOT
ATOM      1  C   UNL     1     -45.045  -4.581 -32.597  0.00  0.00    +0.000 C 
ATOM      2  C   UNL     1     -46.475  -4.139 -32.228  0.00  0.00    +0.000 C 
ATOM      3  C   UNL     1     -47.419  -4.655 -33.322  0.00  0.00    +0.000 C 
ATOM      4  C   UNL     1     -46.503  -5.300 -34.282  0.00  0.00    +0.000 C 
ATOM      5  C   UNL     1     -44.078  -5.998 -34.503  0.00  0.00    +0.000 C 
ATOM      6  O   UNL     1     -46.885  -5.866 -35.340  0.00  0.00    +0.000 OA
ATOM      7  N   UNL     1     -45.150  -5.234 -33.888  0.00  0.00    +0.000 N 
ENDROOT
BRANCH   1  12
ATOM      8  C   UNL     1     -41.432  -0.067 -32.784  0.00  0.00    +0.000 C 
ATOM      9  C   UNL     1     -42.366  -1.222 -32.741  0.00  0.00    +0.000 A 
ATOM     10  C   UNL     1     -41.931  -2.453 -32.239  0.00  0.00    +0.000 A 
ATOM     11  C   UNL     1     -42.808  -3.540 -32.198  0.00  0.00    +0.000 A 
ATOM     12  C   UNL     1     -44.122  -3.402 -32.659  0.00  0.00    +0.000 A 
ATOM     13  C   UNL     1     -44.556  -2.164 -33.159  0.00  0.00    +0.000 A 
ATOM     14  C   UNL     1     -43.677  -1.077 -33.200  0.00  0.00    +0.000 A 
ENDBRANCH   1  12
BRANCH   2  15
ATOM     15  C   UNL     1     -46.864  -4.680 -30.892  0.00  0.00    +0.000 C 
ATOM     16  O   UNL     1     -47.756  -5.566 -30.831  0.00  0.00    +0.000 OA
ATOM     17  N   UNL     1     -46.223  -4.188 -29.706  0.00  0.00    +0.000 NA
BRANCH  17  18
ATOM     18  C   UNL     1     -46.487  -4.591 -28.355  0.00  0.00    +0.000 A 
ATOM     19  C   UNL     1     -47.341  -3.858 -27.519  0.00  0.00    +0.000 A 
ATOM     20  C   UNL     1     -47.565  -4.292 -26.212  0.00  0.00    +0.000 A 
ATOM     21  C   UNL     1     -46.938  -5.449 -25.749  0.00  0.00    +0.000 A 
ATOM     22  C   UNL     1     -46.093  -6.156 -26.605  0.00  0.00    +0.000 A 
ATOM     23  C   UNL     1     -45.417  -7.390 -26.130  0.00  0.00    +0.000 C 
ATOM     24  N   UNL     1     -45.889  -5.716 -27.877  0.00  0.00    +0.000 NA
ENDBRANCH  17  18
ENDBRANCH   2  15
TORSDOF 3
ENDMDL
