MODEL 1
REMARK VINA RESULT:      -6.3      0.000      0.000
REMARK  Name = ZINC000011565587 ZINC11565587 PubChem-12304941
REMARK  9 active torsions:
REMARK  status: ('A' for Active; 'I' for Inactive)
REMARK    1  A    between atoms: N_9  and  C_20
REMARK    2  A    between atoms: C_20  and  C_21
REMARK    3  A    between atoms: C_21  and  O_22
REMARK    4  A    between atoms: C_21  and  C_24
REMARK    5  A    between atoms: C_24  and  O_25
REMARK    6  A    between atoms: C_24  and  C_27
REMARK    7  A    between atoms: C_27  and  O_28
REMARK    8  A    between atoms: C_27  and  C_30
REMARK    9  A    between atoms: C_30  and  O_31
REMARK                            x       y       z     vdW  Elec       q    Type
REMARK                         _______ _______ _______ _____ _____    ______ ____
ROOT
ATOM      1  C   UNL     1     -46.988  -4.191 -23.884  0.00  0.00    +0.000 C 
ATOM      2  C   UNL     1     -47.040  -4.510 -25.341  0.00  0.00    +0.000 A 
ATOM      3  C   UNL     1     -46.821  -5.829 -25.746  0.00  0.00    +0.000 A 
ATOM      4  C   UNL     1     -46.860  -6.173 -27.099  0.00  0.00    +0.000 A 
ATOM      5  C   UNL     1     -47.126  -5.179 -28.079  0.00  0.00    +0.000 A 
ATOM      6  C   UNL     1     -47.344  -3.857 -27.656  0.00  0.00    +0.000 A 
ATOM      7  C   UNL     1     -47.302  -3.518 -26.301  0.00  0.00    +0.000 A 
ATOM      8  C   UNL     1     -47.541  -2.099 -25.911  0.00  0.00    +0.000 C 
ATOM      9  N   UNL     1     -47.167  -5.513 -29.412  0.00  0.00    +0.000 N 
ATOM     10  C   UNL     1     -46.945  -6.805 -29.795  0.00  0.00    +0.000 A 
ATOM     11  N   UNL     1     -46.968  -7.181 -31.101  0.00  0.00    +0.000 NA
ATOM     12  C   UNL     1     -46.745  -8.474 -31.460  0.00  0.00    +0.000 A 
ATOM     13  O   UNL     1     -46.772  -8.795 -32.677  0.00  0.00    +0.000 OA
ATOM     14  N   UNL     1     -46.492  -9.425 -30.517  0.00  0.00    +0.000 N 
ATOM     15  C   UNL     1     -46.450  -9.133 -29.190  0.00  0.00    +0.000 A 
ATOM     16  O   UNL     1     -46.212 -10.045 -28.356  0.00  0.00    +0.000 OA
ATOM     17  C   UNL     1     -46.671  -7.824 -28.768  0.00  0.00    +0.000 A 
ATOM     18  N   UNL     1     -46.641  -7.461 -27.464  0.00  0.00    +0.000 NA
ATOM     19  H   UNL     1     -46.336 -10.353 -30.806  0.00  0.00    +0.000 HD
ENDROOT
BRANCH   9  20
ATOM     20  C   UNL     1     -47.455  -4.501 -30.432  0.00  0.00    +0.000 C 
BRANCH  20  21
ATOM     21  C   UNL     1     -46.165  -3.870 -30.947  0.00  0.00    +0.000 C 
BRANCH  21  22
ATOM     22  O   UNL     1     -46.184  -2.486 -30.753  0.00  0.00    +0.000 OA
ATOM     23  H   UNL     1     -46.871  -2.092 -31.312  0.00  0.00    +0.000 HD
ENDBRANCH  21  22
BRANCH  21  24
ATOM     24  C   UNL     1     -45.940  -4.216 -32.418  0.00  0.00    +0.000 C 
BRANCH  24  25
ATOM     25  O   UNL     1     -44.892  -3.452 -32.938  0.00  0.00    +0.000 OA
ATOM     26  H   UNL     1     -44.975  -2.537 -32.629  0.00  0.00    +0.000 HD
ENDBRANCH  24  25
BRANCH  24  27
ATOM     27  C   UNL     1     -47.203  -4.069 -33.274  0.00  0.00    +0.000 C 
BRANCH  27  28
ATOM     28  O   UNL     1     -47.380  -2.744 -33.674  0.00  0.00    +0.000 OA
ATOM     29  H   UNL     1     -46.951  -2.152 -33.035  0.00  0.00    +0.000 HD
ENDBRANCH  27  28
BRANCH  27  30
ATOM     30  C   UNL     1     -47.129  -4.962 -34.500  0.00  0.00    +0.000 C 
BRANCH  30  31
ATOM     31  O   UNL     1     -46.734  -6.248 -34.131  0.00  0.00    +0.000 OA
ATOM     32  H   UNL     1     -45.979  -6.193 -33.523  0.00  0.00    +0.000 HD
ENDBRANCH  30  31
ENDBRANCH  27  30
ENDBRANCH  24  27
ENDBRANCH  21  24
ENDBRANCH  20  21
ENDBRANCH   9  20
TORSDOF 9
ENDMDL
MODEL 2
REMARK VINA RESULT:      -5.7      9.557     13.135
REMARK  Name = ZINC000011565587 ZINC11565587 PubChem-12304941
REMARK  9 active torsions:
REMARK  status: ('A' for Active; 'I' for Inactive)
REMARK    1  A    between atoms: N_9  and  C_20
REMARK    2  A    between atoms: C_20  and  C_21
REMARK    3  A    between atoms: C_21  and  O_22
REMARK    4  A    between atoms: C_21  and  C_24
REMARK    5  A    between atoms: C_24  and  O_25
REMARK    6  A    between atoms: C_24  and  C_27
REMARK    7  A    between atoms: C_27  and  O_28
REMARK    8  A    between atoms: C_27  and  C_30
REMARK    9  A    between atoms: C_30  and  O_31
REMARK                            x       y       z     vdW  Elec       q    Type
REMARK                         _______ _______ _______ _____ _____    ______ ____
ROOT
ATOM      1  C   UNL     1     -46.944 -15.344 -18.527  0.00  0.00    +0.000 C 
ATOM      2  C   UNL     1     -46.458 -15.688 -19.895  0.00  0.00    +0.000 A 
ATOM      3  C   UNL     1     -46.544 -14.720 -20.899  0.00  0.00    +0.000 A 
ATOM      4  C   UNL     1     -46.101 -14.998 -22.193  0.00  0.00    +0.000 A 
ATOM      5  C   UNL     1     -45.555 -16.274 -22.501  0.00  0.00    +0.000 A 
ATOM      6  C   UNL     1     -45.477 -17.237 -21.482  0.00  0.00    +0.000 A 
ATOM      7  C   UNL     1     -45.923 -16.954 -20.187  0.00  0.00    +0.000 A 
ATOM      8  C   UNL     1     -45.814 -18.015 -19.145  0.00  0.00    +0.000 C 
ATOM      9  N   UNL     1     -45.116 -16.551 -23.774  0.00  0.00    +0.000 N 
ATOM     10  C   UNL     1     -45.211 -15.598 -24.748  0.00  0.00    +0.000 A 
ATOM     11  N   UNL     1     -44.798 -15.829 -26.022  0.00  0.00    +0.000 NA
ATOM     12  C   UNL     1     -44.901 -14.865 -26.976  0.00  0.00    +0.000 A 
ATOM     13  O   UNL     1     -44.510 -15.105 -28.148  0.00  0.00    +0.000 OA
ATOM     14  N   UNL     1     -45.423 -13.642 -26.677  0.00  0.00    +0.000 N 
ATOM     15  C   UNL     1     -45.861 -13.330 -25.428  0.00  0.00    +0.000 A 
ATOM     16  O   UNL     1     -46.335 -12.187 -25.200  0.00  0.00    +0.000 OA
ATOM     17  C   UNL     1     -45.779 -14.282 -24.414  0.00  0.00    +0.000 A 
ATOM     18  N   UNL     1     -46.198 -14.040 -23.150  0.00  0.00    +0.000 NA
ATOM     19  H   UNL     1     -45.484 -12.963 -27.387  0.00  0.00    +0.000 HD
ENDROOT
BRANCH   9  20
ATOM     20  C   UNL     1     -44.538 -17.858 -24.102  0.00  0.00    +0.000 C 
BRANCH  20  21
ATOM     21  C   UNL     1     -45.274 -18.495 -25.276  0.00  0.00    +0.000 C 
BRANCH  21  22
ATOM     22  O   UNL     1     -46.592 -18.797 -24.923  0.00  0.00    +0.000 OA
ATOM     23  H   UNL     1     -46.630 -19.691 -24.550  0.00  0.00    +0.000 HD
ENDBRANCH  21  22
BRANCH  21  24
ATOM     24  C   UNL     1     -44.538 -19.740 -25.768  0.00  0.00    +0.000 C 
BRANCH  24  25
ATOM     25  O   UNL     1     -43.855 -20.346 -24.710  0.00  0.00    +0.000 OA
ATOM     26  H   UNL     1     -44.237 -21.219 -24.537  0.00  0.00    +0.000 HD
ENDBRANCH  24  25
BRANCH  24  27
ATOM     27  C   UNL     1     -43.593 -19.459 -26.942  0.00  0.00    +0.000 C 
BRANCH  27  28
ATOM     28  O   UNL     1     -43.750 -18.151 -27.404  0.00  0.00    +0.000 OA
ATOM     29  H   UNL     1     -44.349 -18.148 -28.167  0.00  0.00    +0.000 HD
ENDBRANCH  27  28
BRANCH  27  30
ATOM     30  C   UNL     1     -42.147 -19.679 -26.531  0.00  0.00    +0.000 C 
BRANCH  30  31
ATOM     31  O   UNL     1     -41.624 -18.510 -25.978  0.00  0.00    +0.000 OA
ATOM     32  H   UNL     1     -40.875 -18.204 -26.514  0.00  0.00    +0.000 HD
ENDBRANCH  30  31
ENDBRANCH  27  30
ENDBRANCH  24  27
ENDBRANCH  21  24
ENDBRANCH  20  21
ENDBRANCH   9  20
TORSDOF 9
ENDMDL
MODEL 3
REMARK VINA RESULT:      -5.6      9.958     13.736
REMARK  Name = ZINC000011565587 ZINC11565587 PubChem-12304941
REMARK  9 active torsions:
REMARK  status: ('A' for Active; 'I' for Inactive)
REMARK    1  A    between atoms: N_9  and  C_20
REMARK    2  A    between atoms: C_20  and  C_21
REMARK    3  A    between atoms: C_21  and  O_22
REMARK    4  A    between atoms: C_21  and  C_24
REMARK    5  A    between atoms: C_24  and  O_25
REMARK    6  A    between atoms: C_24  and  C_27
REMARK    7  A    between atoms: C_27  and  O_28
REMARK    8  A    between atoms: C_27  and  C_30
REMARK    9  A    between atoms: C_30  and  O_31
REMARK                            x       y       z     vdW  Elec       q    Type
REMARK                         _______ _______ _______ _____ _____    ______ ____
ROOT
ATOM      1  C   UNL     1     -46.183 -16.366 -18.784  0.00  0.00    +0.000 C 
ATOM      2  C   UNL     1     -45.962 -16.463 -20.256  0.00  0.00    +0.000 A 
ATOM      3  C   UNL     1     -46.061 -15.302 -21.025  0.00  0.00    +0.000 A 
ATOM      4  C   UNL     1     -45.862 -15.344 -22.407  0.00  0.00    +0.000 A 
ATOM      5  C   UNL     1     -45.553 -16.577 -23.044  0.00  0.00    +0.000 A 
ATOM      6  C   UNL     1     -45.458 -17.737 -22.257  0.00  0.00    +0.000 A 
ATOM      7  C   UNL     1     -45.659 -17.688 -20.875  0.00  0.00    +0.000 A 
ATOM      8  C   UNL     1     -45.544 -18.951 -20.090  0.00  0.00    +0.000 C 
ATOM      9  N   UNL     1     -45.355 -16.624 -24.403  0.00  0.00    +0.000 N 
ATOM     10  C   UNL     1     -45.462 -15.482 -25.145  0.00  0.00    +0.000 A 
ATOM     11  N   UNL     1     -45.282 -15.481 -26.492  0.00  0.00    +0.000 NA
ATOM     12  C   UNL     1     -45.392 -14.332 -27.211  0.00  0.00    +0.000 A 
ATOM     13  O   UNL     1     -45.220 -14.359 -28.458  0.00  0.00    +0.000 OA
ATOM     14  N   UNL     1     -45.686 -13.151 -26.597  0.00  0.00    +0.000 N 
ATOM     15  C   UNL     1     -45.882 -13.065 -25.254  0.00  0.00    +0.000 A 
ATOM     16  O   UNL     1     -46.152 -11.952 -24.732  0.00  0.00    +0.000 OA
ATOM     17  C   UNL     1     -45.782 -14.213 -24.472  0.00  0.00    +0.000 A 
ATOM     18  N   UNL     1     -45.967 -14.201 -23.130  0.00  0.00    +0.000 NA
ATOM     19  H   UNL     1     -45.758 -12.335 -27.142  0.00  0.00    +0.000 HD
ENDROOT
BRANCH   9  20
ATOM     20  C   UNL     1     -45.022 -17.886 -25.071  0.00  0.00    +0.000 C 
BRANCH  20  21
ATOM     21  C   UNL     1     -43.528 -18.176 -24.964  0.00  0.00    +0.000 C 
BRANCH  21  22
ATOM     22  O   UNL     1     -42.825 -17.501 -25.966  0.00  0.00    +0.000 OA
ATOM     23  H   UNL     1     -43.400 -16.833 -26.370  0.00  0.00    +0.000 HD
ENDBRANCH  21  22
BRANCH  21  24
ATOM     24  C   UNL     1     -43.260 -19.679 -25.021  0.00  0.00    +0.000 C 
BRANCH  24  25
ATOM     25  O   UNL     1     -44.386 -20.385 -24.591  0.00  0.00    +0.000 OA
ATOM     26  H   UNL     1     -44.534 -21.146 -25.174  0.00  0.00    +0.000 HD
ENDBRANCH  24  25
BRANCH  24  27
ATOM     27  C   UNL     1     -42.014 -20.101 -24.235  0.00  0.00    +0.000 C 
BRANCH  27  28
ATOM     28  O   UNL     1     -41.194 -19.002 -23.978  0.00  0.00    +0.000 OA
ATOM     29  H   UNL     1     -41.702 -18.184 -24.094  0.00  0.00    +0.000 HD
ENDBRANCH  27  28
BRANCH  27  30
ATOM     30  C   UNL     1     -42.405 -20.758 -22.922  0.00  0.00    +0.000 C 
BRANCH  30  31
ATOM     31  O   UNL     1     -42.435 -22.145 -23.073  0.00  0.00    +0.000 OA
ATOM     32  H   UNL     1     -42.029 -22.387 -23.920  0.00  0.00    +0.000 HD
ENDBRANCH  30  31
ENDBRANCH  27  30
ENDBRANCH  24  27
ENDBRANCH  21  24
ENDBRANCH  20  21
ENDBRANCH   9  20
TORSDOF 9
ENDMDL
