MODEL 1
REMARK VINA RESULT:      -6.2      0.000      0.000
REMARK  Name = ZINC000005372517 ZINC05372517 PubChem-92261927
REMARK  9 active torsions:
REMARK  status: ('A' for Active; 'I' for Inactive)
REMARK    1  A    between atoms: N_14  and  C_20
REMARK    2  A    between atoms: C_20  and  C_21
REMARK    3  A    between atoms: C_21  and  O_22
REMARK    4  A    between atoms: C_21  and  C_24
REMARK    5  A    between atoms: C_24  and  O_25
REMARK    6  A    between atoms: C_24  and  C_27
REMARK    7  A    between atoms: C_27  and  O_28
REMARK    8  A    between atoms: C_27  and  C_30
REMARK    9  A    between atoms: C_30  and  O_31
REMARK                            x       y       z     vdW  Elec       q    Type
REMARK                         _______ _______ _______ _____ _____    ______ ____
ROOT
ATOM      1  C   UNL     1     -47.130  -3.521 -23.479  0.00  0.00    +0.000 C 
ATOM      2  C   UNL     1     -47.110  -3.958 -24.903  0.00  0.00    +0.000 A 
ATOM      3  C   UNL     1     -46.799  -5.289 -25.191  0.00  0.00    +0.000 A 
ATOM      4  C   UNL     1     -46.768  -5.741 -26.513  0.00  0.00    +0.000 A 
ATOM      5  C   UNL     1     -46.448  -7.071 -26.764  0.00  0.00    +0.000 A 
ATOM      6  C   UNL     1     -46.410  -7.538 -28.073  0.00  0.00    +0.000 A 
ATOM      7  C   UNL     1     -46.089  -8.863 -28.390  0.00  0.00    +0.000 A 
ATOM      8  O   UNL     1     -45.825  -9.696 -27.481  0.00  0.00    +0.000 OA
ATOM      9  N   UNL     1     -46.061  -9.259 -29.690  0.00  0.00    +0.000 N 
ATOM     10  C   UNL     1     -46.334  -8.415 -30.723  0.00  0.00    +0.000 A 
ATOM     11  O   UNL     1     -46.290  -8.842 -31.905  0.00  0.00    +0.000 OA
ATOM     12  C   UNL     1     -46.663  -7.079 -30.484  0.00  0.00    +0.000 A 
ATOM     13  C   UNL     1     -46.716  -6.595 -29.172  0.00  0.00    +0.000 A 
ATOM     14  N   UNL     1     -47.037  -5.291 -28.885  0.00  0.00    +0.000 N 
ATOM     15  C   UNL     1     -47.059  -4.853 -27.582  0.00  0.00    +0.000 A 
ATOM     16  C   UNL     1     -47.366  -3.516 -27.273  0.00  0.00    +0.000 A 
ATOM     17  C   UNL     1     -47.395  -3.066 -25.951  0.00  0.00    +0.000 A 
ATOM     18  C   UNL     1     -47.731  -1.637 -25.689  0.00  0.00    +0.000 C 
ATOM     19  H   UNL     1     -45.834 -10.194 -29.894  0.00  0.00    +0.000 HD
ENDROOT
BRANCH  14  20
ATOM     20  C   UNL     1     -47.366  -4.362 -29.975  0.00  0.00    +0.000 C 
BRANCH  20  21
ATOM     21  C   UNL     1     -46.100  -3.793 -30.606  0.00  0.00    +0.000 C 
BRANCH  21  22
ATOM     22  O   UNL     1     -45.936  -2.466 -30.204  0.00  0.00    +0.000 OA
ATOM     23  H   UNL     1     -46.580  -2.256 -29.510  0.00  0.00    +0.000 HD
ENDBRANCH  21  22
BRANCH  21  24
ATOM     24  C   UNL     1     -46.150  -3.898 -32.134  0.00  0.00    +0.000 C 
BRANCH  24  25
ATOM     25  O   UNL     1     -47.171  -3.107 -32.666  0.00  0.00    +0.000 OA
ATOM     26  H   UNL     1     -47.679  -2.704 -31.945  0.00  0.00    +0.000 HD
ENDBRANCH  24  25
BRANCH  24  27
ATOM     27  C   UNL     1     -44.808  -3.599 -32.811  0.00  0.00    +0.000 C 
BRANCH  27  28
ATOM     28  O   UNL     1     -43.788  -3.602 -31.860  0.00  0.00    +0.000 OA
ATOM     29  H   UNL     1     -44.140  -3.308 -31.005  0.00  0.00    +0.000 HD
ENDBRANCH  27  28
BRANCH  27  30
ATOM     30  C   UNL     1     -44.794  -2.278 -33.571  0.00  0.00    +0.000 C 
BRANCH  30  31
ATOM     31  O   UNL     1     -44.749  -1.209 -32.676  0.00  0.00    +0.000 OA
ATOM     32  H   UNL     1     -45.537  -0.655 -32.794  0.00  0.00    +0.000 HD
ENDBRANCH  30  31
ENDBRANCH  27  30
ENDBRANCH  24  27
ENDBRANCH  21  24
ENDBRANCH  20  21
ENDBRANCH  14  20
TORSDOF 9
ENDMDL
MODEL 2
REMARK VINA RESULT:      -6.0     11.792     15.551
REMARK  Name = ZINC000005372517 ZINC05372517 PubChem-92261927
REMARK  9 active torsions:
REMARK  status: ('A' for Active; 'I' for Inactive)
REMARK    1  A    between atoms: N_14  and  C_20
REMARK    2  A    between atoms: C_20  and  C_21
REMARK    3  A    between atoms: C_21  and  O_22
REMARK    4  A    between atoms: C_21  and  C_24
REMARK    5  A    between atoms: C_24  and  O_25
REMARK    6  A    between atoms: C_24  and  C_27
REMARK    7  A    between atoms: C_27  and  O_28
REMARK    8  A    between atoms: C_27  and  C_30
REMARK    9  A    between atoms: C_30  and  O_31
REMARK                            x       y       z     vdW  Elec       q    Type
REMARK                         _______ _______ _______ _____ _____    ______ ____
ROOT
ATOM      1  C   UNL     1     -46.788 -12.694 -19.492  0.00  0.00    +0.000 C 
ATOM      2  C   UNL     1     -46.463 -14.017 -20.098  0.00  0.00    +0.000 A 
ATOM      3  C   UNL     1     -46.226 -14.084 -21.473  0.00  0.00    +0.000 A 
ATOM      4  C   UNL     1     -45.918 -15.304 -22.081  0.00  0.00    +0.000 A 
ATOM      5  C   UNL     1     -45.693 -15.336 -23.453  0.00  0.00    +0.000 A 
ATOM      6  C   UNL     1     -45.390 -16.540 -24.076  0.00  0.00    +0.000 A 
ATOM      7  C   UNL     1     -45.158 -16.638 -25.454  0.00  0.00    +0.000 A 
ATOM      8  O   UNL     1     -45.213 -15.615 -26.189  0.00  0.00    +0.000 OA
ATOM      9  N   UNL     1     -44.872 -17.846 -26.007  0.00  0.00    +0.000 N 
ATOM     10  C   UNL     1     -44.797 -18.992 -25.276  0.00  0.00    +0.000 A 
ATOM     11  O   UNL     1     -44.530 -20.080 -25.847  0.00  0.00    +0.000 OA
ATOM     12  C   UNL     1     -45.015 -18.973 -23.896  0.00  0.00    +0.000 A 
ATOM     13  C   UNL     1     -45.313 -17.767 -23.251  0.00  0.00    +0.000 A 
ATOM     14  N   UNL     1     -45.531 -17.695 -21.898  0.00  0.00    +0.000 N 
ATOM     15  C   UNL     1     -45.839 -16.491 -21.308  0.00  0.00    +0.000 A 
ATOM     16  C   UNL     1     -46.086 -16.405 -19.926  0.00  0.00    +0.000 A 
ATOM     17  C   UNL     1     -46.394 -15.185 -19.320  0.00  0.00    +0.000 A 
ATOM     18  C   UNL     1     -46.642 -15.159 -17.850  0.00  0.00    +0.000 C 
ATOM     19  H   UNL     1     -44.712 -17.895 -26.977  0.00  0.00    +0.000 HD
ENDROOT
BRANCH  14  20
ATOM     20  C   UNL     1     -45.429 -18.908 -21.075  0.00  0.00    +0.000 C 
BRANCH  20  21
ATOM     21  C   UNL     1     -44.032 -19.048 -20.481  0.00  0.00    +0.000 C 
BRANCH  21  22
ATOM     22  O   UNL     1     -43.307 -19.990 -21.213  0.00  0.00    +0.000 OA
ATOM     23  H   UNL     1     -42.416 -19.648 -21.388  0.00  0.00    +0.000 HD
ENDBRANCH  21  22
BRANCH  21  24
ATOM     24  C   UNL     1     -44.098 -19.441 -19.001  0.00  0.00    +0.000 C 
BRANCH  24  25
ATOM     25  O   UNL     1     -45.253 -20.176 -18.720  0.00  0.00    +0.000 OA
ATOM     26  H   UNL     1     -45.007 -21.071 -18.436  0.00  0.00    +0.000 HD
ENDBRANCH  24  25
BRANCH  24  27
ATOM     27  C   UNL     1     -42.844 -20.169 -18.506  0.00  0.00    +0.000 C 
BRANCH  27  28
ATOM     28  O   UNL     1     -43.135 -21.515 -18.284  0.00  0.00    +0.000 OA
ATOM     29  H   UNL     1     -44.065 -21.686 -18.501  0.00  0.00    +0.000 HD
ENDBRANCH  27  28
BRANCH  27  30
ATOM     30  C   UNL     1     -42.250 -19.559 -17.242  0.00  0.00    +0.000 C 
BRANCH  30  31
ATOM     31  O   UNL     1     -42.413 -18.174 -17.254  0.00  0.00    +0.000 OA
ATOM     32  H   UNL     1     -43.060 -17.930 -17.935  0.00  0.00    +0.000 HD
ENDBRANCH  30  31
ENDBRANCH  27  30
ENDBRANCH  24  27
ENDBRANCH  21  24
ENDBRANCH  20  21
ENDBRANCH  14  20
TORSDOF 9
ENDMDL
MODEL 3
REMARK VINA RESULT:      -5.7      2.176      5.999
REMARK  Name = ZINC000005372517 ZINC05372517 PubChem-92261927
REMARK  9 active torsions:
REMARK  status: ('A' for Active; 'I' for Inactive)
REMARK    1  A    between atoms: N_14  and  C_20
REMARK    2  A    between atoms: C_20  and  C_21
REMARK    3  A    between atoms: C_21  and  O_22
REMARK    4  A    between atoms: C_21  and  C_24
REMARK    5  A    between atoms: C_24  and  O_25
REMARK    6  A    between atoms: C_24  and  C_27
REMARK    7  A    between atoms: C_27  and  O_28
REMARK    8  A    between atoms: C_27  and  C_30
REMARK    9  A    between atoms: C_30  and  O_31
REMARK                            x       y       z     vdW  Elec       q    Type
REMARK                         _______ _______ _______ _____ _____    ______ ____
ROOT
ATOM      1  C   UNL     1     -47.388  -2.949 -22.978  0.00  0.00    +0.000 C 
ATOM      2  C   UNL     1     -47.127  -3.965 -24.038  0.00  0.00    +0.000 A 
ATOM      3  C   UNL     1     -47.300  -3.598 -25.374  0.00  0.00    +0.000 A 
ATOM      4  C   UNL     1     -47.067  -4.518 -26.400  0.00  0.00    +0.000 A 
ATOM      5  C   UNL     1     -47.255  -4.121 -27.719  0.00  0.00    +0.000 A 
ATOM      6  C   UNL     1     -47.032  -5.024 -28.751  0.00  0.00    +0.000 A 
ATOM      7  C   UNL     1     -47.209  -4.685 -30.099  0.00  0.00    +0.000 A 
ATOM      8  O   UNL     1     -47.578  -3.526 -30.427  0.00  0.00    +0.000 OA
ATOM      9  N   UNL     1     -46.981  -5.615 -31.064  0.00  0.00    +0.000 N 
ATOM     10  C   UNL     1     -46.581  -6.886 -30.784  0.00  0.00    +0.000 A 
ATOM     11  O   UNL     1     -46.388  -7.700 -31.722  0.00  0.00    +0.000 OA
ATOM     12  C   UNL     1     -46.383  -7.296 -29.463  0.00  0.00    +0.000 A 
ATOM     13  C   UNL     1     -46.594  -6.397 -28.412  0.00  0.00    +0.000 A 
ATOM     14  N   UNL     1     -46.410  -6.750 -27.098  0.00  0.00    +0.000 N 
ATOM     15  C   UNL     1     -46.647  -5.839 -26.096  0.00  0.00    +0.000 A 
ATOM     16  C   UNL     1     -46.482  -6.192 -24.744  0.00  0.00    +0.000 A 
ATOM     17  C   UNL     1     -46.717  -5.271 -23.720  0.00  0.00    +0.000 A 
ATOM     18  C   UNL     1     -46.521  -5.706 -22.308  0.00  0.00    +0.000 C 
ATOM     19  H   UNL     1     -47.110  -5.359 -32.005  0.00  0.00    +0.000 HD
ENDROOT
BRANCH  14  20
ATOM     20  C   UNL     1     -45.951  -8.105 -26.763  0.00  0.00    +0.000 C 
BRANCH  20  21
ATOM     21  C   UNL     1     -47.105  -9.100 -26.817  0.00  0.00    +0.000 C 
BRANCH  21  22
ATOM     22  O   UNL     1     -47.480  -9.448 -25.518  0.00  0.00    +0.000 OA
ATOM     23  H   UNL     1     -48.189  -8.859 -25.217  0.00  0.00    +0.000 HD
ENDBRANCH  21  22
BRANCH  21  24
ATOM     24  C   UNL     1     -46.723 -10.344 -27.627  0.00  0.00    +0.000 C 
BRANCH  24  25
ATOM     25  O   UNL     1     -45.385 -10.300 -28.029  0.00  0.00    +0.000 OA
ATOM     26  H   UNL     1     -45.170  -9.408 -28.342  0.00  0.00    +0.000 HD
ENDBRANCH  24  25
BRANCH  24  27
ATOM     27  C   UNL     1     -47.044 -11.660 -26.911  0.00  0.00    +0.000 C 
BRANCH  27  28
ATOM     28  O   UNL     1     -46.102 -11.896 -25.910  0.00  0.00    +0.000 OA
ATOM     29  H   UNL     1     -45.691 -12.764 -26.050  0.00  0.00    +0.000 HD
ENDBRANCH  27  28
BRANCH  27  30
ATOM     30  C   UNL     1     -47.104 -12.860 -27.850  0.00  0.00    +0.000 C 
BRANCH  30  31
ATOM     31  O   UNL     1     -47.441 -12.445 -29.139  0.00  0.00    +0.000 OA
ATOM     32  H   UNL     1     -48.400 -12.313 -29.195  0.00  0.00    +0.000 HD
ENDBRANCH  30  31
ENDBRANCH  27  30
ENDBRANCH  24  27
ENDBRANCH  21  24
ENDBRANCH  20  21
ENDBRANCH  14  20
TORSDOF 9
ENDMDL
