MODEL 1
REMARK VINA RESULT:      -6.3      0.000      0.000
REMARK  Name = ZINC000120428911 PubChem-124568485
REMARK  3 active torsions:
REMARK  status: ('A' for Active; 'I' for Inactive)
REMARK    1  A    between atoms: C_6  and  N_20
REMARK    2  A    between atoms: C_7  and  C_8
REMARK    3  A    between atoms: C_13  and  C_14
REMARK                            x       y       z     vdW  Elec       q    Type
REMARK                         _______ _______ _______ _____ _____    ______ ____
ROOT
ATOM      1  C   UNL     1     -45.984  -3.303 -31.398  0.00  0.00    +0.000 C 
ATOM      2  C   UNL     1     -46.861  -3.338 -32.651  0.00  0.00    +0.000 C 
ATOM      3  C   UNL     1     -46.789  -4.685 -33.361  0.00  0.00    +0.000 C 
ATOM      4  C   UNL     1     -45.373  -5.132 -33.551  0.00  0.00    +0.000 C 
ATOM      5  C   UNL     1     -43.060  -5.421 -32.641  0.00  0.00    +0.000 C 
ATOM      6  C   UNL     1     -44.513  -3.601 -31.714  0.00  0.00    +0.000 C 
ATOM      7  N   UNL     1     -44.347  -4.742 -32.622  0.00  0.00    +0.000 N 
ATOM      8  O   UNL     1     -45.103  -5.904 -34.510  0.00  0.00    +0.000 OA
ENDROOT
BRANCH   6   9
ATOM      9  C   UNL     1     -43.817  -2.389 -32.253  0.00  0.00    +0.000 A 
ATOM     10  C   UNL     1     -44.347  -1.424 -33.093  0.00  0.00    +0.000 A 
ATOM     11  C   UNL     1     -41.033  -0.180 -32.727  0.00  0.00    +0.000 C 
ATOM     12  C   UNL     1     -42.504  -2.044 -32.013  0.00  0.00    +0.000 A 
ATOM     13  N   UNL     1     -43.376  -0.525 -33.342  0.00  0.00    +0.000 NA
ATOM     14  N   UNL     1     -42.289  -0.907 -32.693  0.00  0.00    +0.000 N 
ENDBRANCH   6   9
BRANCH   1  15
ATOM     15  C   UNL     1     -46.518  -4.172 -30.301  0.00  0.00    +0.000 C 
ATOM     16  N   UNL     1     -45.676  -5.162 -29.692  0.00  0.00    +0.000 NA
ATOM     17  O   UNL     1     -47.718  -4.031 -29.944  0.00  0.00    +0.000 OA
BRANCH  16  23
ATOM     18  C   UNL     1     -46.337  -6.196 -24.867  0.00  0.00    +0.000 C 
ATOM     19  C   UNL     1     -46.368  -6.604 -26.295  0.00  0.00    +0.000 A 
ATOM     20  C   UNL     1     -46.757  -7.901 -26.643  0.00  0.00    +0.000 A 
ATOM     21  C   UNL     1     -46.784  -8.283 -27.987  0.00  0.00    +0.000 A 
ATOM     22  C   UNL     1     -46.426  -7.370 -28.981  0.00  0.00    +0.000 A 
ATOM     23  C   UNL     1     -46.037  -6.069 -28.642  0.00  0.00    +0.000 A 
ATOM     24  C   UNL     1     -46.010  -5.691 -27.291  0.00  0.00    +0.000 A 
ATOM     25  F   UNL     1     -47.161  -9.540 -28.325  0.00  0.00    +0.000 F 
ENDBRANCH  16  23
ENDBRANCH   1  15
TORSDOF 3
ENDMDL
MODEL 2
REMARK VINA RESULT:      -6.3     11.097     14.221
REMARK  Name = ZINC000120428911 PubChem-124568485
REMARK  3 active torsions:
REMARK  status: ('A' for Active; 'I' for Inactive)
REMARK    1  A    between atoms: C_6  and  N_20
REMARK    2  A    between atoms: C_7  and  C_8
REMARK    3  A    between atoms: C_13  and  C_14
REMARK                            x       y       z     vdW  Elec       q    Type
REMARK                         _______ _______ _______ _____ _____    ______ ____
ROOT
ATOM      1  C   UNL     1     -44.958 -17.585 -25.688  0.00  0.00    +0.000 C 
ATOM      2  C   UNL     1     -44.276 -18.779 -26.359  0.00  0.00    +0.000 C 
ATOM      3  C   UNL     1     -42.939 -19.113 -25.706  0.00  0.00    +0.000 C 
ATOM      4  C   UNL     1     -42.088 -17.894 -25.539  0.00  0.00    +0.000 C 
ATOM      5  C   UNL     1     -41.868 -15.487 -24.892  0.00  0.00    +0.000 C 
ATOM      6  C   UNL     1     -44.080 -16.327 -25.718  0.00  0.00    +0.000 C 
ATOM      7  N   UNL     1     -42.685 -16.599 -25.354  0.00  0.00    +0.000 N 
ATOM      8  O   UNL     1     -40.835 -18.028 -25.507  0.00  0.00    +0.000 OA
ENDROOT
BRANCH   6   9
ATOM      9  C   UNL     1     -44.157 -15.643 -27.049  0.00  0.00    +0.000 A 
ATOM     10  C   UNL     1     -43.252 -15.737 -28.092  0.00  0.00    +0.000 A 
ATOM     11  C   UNL     1     -45.598 -13.465 -29.506  0.00  0.00    +0.000 C 
ATOM     12  C   UNL     1     -45.151 -14.775 -27.448  0.00  0.00    +0.000 A 
ATOM     13  N   UNL     1     -43.698 -14.950 -29.089  0.00  0.00    +0.000 NA
ATOM     14  N   UNL     1     -44.826 -14.386 -28.691  0.00  0.00    +0.000 N 
ENDBRANCH   6   9
BRANCH   1  15
ATOM     15  C   UNL     1     -45.447 -17.905 -24.309  0.00  0.00    +0.000 C 
ATOM     16  N   UNL     1     -45.067 -17.076 -23.199  0.00  0.00    +0.000 NA
ATOM     17  O   UNL     1     -46.174 -18.920 -24.142  0.00  0.00    +0.000 OA
BRANCH  16  23
ATOM     18  C   UNL     1     -46.604 -15.235 -18.837  0.00  0.00    +0.000 C 
ATOM     19  C   UNL     1     -46.193 -16.383 -19.686  0.00  0.00    +0.000 A 
ATOM     20  C   UNL     1     -46.166 -17.674 -19.150  0.00  0.00    +0.000 A 
ATOM     21  C   UNL     1     -45.778 -18.753 -19.950  0.00  0.00    +0.000 A 
ATOM     22  C   UNL     1     -45.419 -18.541 -21.283  0.00  0.00    +0.000 A 
ATOM     23  C   UNL     1     -45.444 -17.252 -21.828  0.00  0.00    +0.000 A 
ATOM     24  C   UNL     1     -45.833 -16.173 -21.020  0.00  0.00    +0.000 A 
ATOM     25  F   UNL     1     -45.753 -20.004 -19.432  0.00  0.00    +0.000 F 
ENDBRANCH  16  23
ENDBRANCH   1  15
TORSDOF 3
ENDMDL
MODEL 3
REMARK VINA RESULT:      -6.1     10.709     14.895
REMARK  Name = ZINC000120428911 PubChem-124568485
REMARK  3 active torsions:
REMARK  status: ('A' for Active; 'I' for Inactive)
REMARK    1  A    between atoms: C_6  and  N_20
REMARK    2  A    between atoms: C_7  and  C_8
REMARK    3  A    between atoms: C_13  and  C_14
REMARK                            x       y       z     vdW  Elec       q    Type
REMARK                         _______ _______ _______ _____ _____    ______ ____
ROOT
ATOM      1  C   UNL     1     -44.554 -16.554 -23.874  0.00  0.00    +0.000 C 
ATOM      2  C   UNL     1     -43.052 -16.432 -24.138  0.00  0.00    +0.000 C 
ATOM      3  C   UNL     1     -42.644 -17.119 -25.437  0.00  0.00    +0.000 C 
ATOM      4  C   UNL     1     -43.204 -18.503 -25.527  0.00  0.00    +0.000 C 
ATOM      5  C   UNL     1     -45.128 -20.076 -25.231  0.00  0.00    +0.000 C 
ATOM      6  C   UNL     1     -45.012 -18.017 -23.808  0.00  0.00    +0.000 C 
ATOM      7  N   UNL     1     -44.448 -18.837 -24.886  0.00  0.00    +0.000 N 
ATOM      8  O   UNL     1     -42.597 -19.360 -26.223  0.00  0.00    +0.000 OA
ENDROOT
BRANCH   6   9
ATOM      9  C   UNL     1     -44.712 -18.620 -22.471  0.00  0.00    +0.000 A 
ATOM     10  C   UNL     1     -43.626 -19.409 -22.133  0.00  0.00    +0.000 A 
ATOM     11  C   UNL     1     -45.348 -19.354 -19.019  0.00  0.00    +0.000 C 
ATOM     12  C   UNL     1     -45.497 -18.502 -21.343  0.00  0.00    +0.000 A 
ATOM     13  N   UNL     1     -43.758 -19.748 -20.837  0.00  0.00    +0.000 NA
ATOM     14  N   UNL     1     -44.873 -19.202 -20.382  0.00  0.00    +0.000 N 
ENDBRANCH   6   9
BRANCH   1  15
ATOM     15  C   UNL     1     -45.372 -15.744 -24.832  0.00  0.00    +0.000 C 
ATOM     16  N   UNL     1     -44.780 -14.637 -25.528  0.00  0.00    +0.000 NA
ATOM     17  O   UNL     1     -46.586 -16.040 -24.996  0.00  0.00    +0.000 OA
BRANCH  16  23
ATOM     18  C   UNL     1     -47.246 -10.446 -26.596  0.00  0.00    +0.000 C 
ATOM     19  C   UNL     1     -46.632 -11.731 -27.019  0.00  0.00    +0.000 A 
ATOM     20  C   UNL     1     -46.676 -12.119 -28.362  0.00  0.00    +0.000 A 
ATOM     21  C   UNL     1     -46.098 -13.328 -28.757  0.00  0.00    +0.000 A 
ATOM     22  C   UNL     1     -45.476 -14.148 -27.812  0.00  0.00    +0.000 A 
ATOM     23  C   UNL     1     -45.426 -13.767 -26.467  0.00  0.00    +0.000 A 
ATOM     24  C   UNL     1     -46.009 -12.552 -26.075  0.00  0.00    +0.000 A 
ATOM     25  F   UNL     1     -46.140 -13.704 -30.058  0.00  0.00    +0.000 F 
ENDBRANCH  16  23
ENDBRANCH   1  15
TORSDOF 3
ENDMDL
