MODEL 1
REMARK VINA RESULT:      -6.9      0.000      0.000
REMARK  Name = ZINC000224489095
REMARK  3 active torsions:
REMARK  status: ('A' for Active; 'I' for Inactive)
REMARK    1  A    between atoms: C_1  and  C_25
REMARK    2  A    between atoms: N_3  and  C_5
REMARK    3  A    between atoms: N_27  and  S_28
REMARK                            x       y       z     vdW  Elec       q    Type
REMARK                         _______ _______ _______ _____ _____    ______ ____
ROOT
ATOM      1  C   UNL     1     -46.541  -3.535 -32.506  0.00  0.00    +0.000 C 
ATOM      2  O   UNL     1     -46.989  -2.781 -33.410  0.00  0.00    +0.000 OA
ATOM      3  N   UNL     1     -47.466  -4.313 -31.734  0.00  0.00    +0.000 N 
ATOM      4  H   UNL     1     -48.388  -4.369 -32.076  0.00  0.00    +0.000 HD
ENDROOT
BRANCH   3   5
ATOM      5  C   UNL     1     -47.191  -5.022 -30.514  0.00  0.00    +0.000 A 
ATOM      6  C   UNL     1     -46.997  -4.337 -29.286  0.00  0.00    +0.000 A 
ATOM      7  C   UNL     1     -46.743  -5.036 -28.087  0.00  0.00    +0.000 A 
ATOM      8  C   UNL     1     -46.693  -6.429 -28.136  0.00  0.00    +0.000 A 
ATOM      9  C   UNL     1     -46.889  -7.076 -29.311  0.00  0.00    +0.000 A 
ATOM     10  C   UNL     1     -46.811  -8.424 -29.178  0.00  0.00    +0.000 A 
ATOM     11  C   UNL     1     -46.984  -9.250 -30.292  0.00  0.00    +0.000 A 
ATOM     12  C   UNL     1     -47.245  -8.643 -31.540  0.00  0.00    +0.000 A 
ATOM     13  C   UNL     1     -47.325  -7.235 -31.657  0.00  0.00    +0.000 A 
ATOM     14  C   UNL     1     -47.142  -6.431 -30.518  0.00  0.00    +0.000 A 
ATOM     15  C   UNL     1     -46.525  -8.788 -27.757  0.00  0.00    +0.000 C 
ATOM     16  C   UNL     1     -46.454  -7.413 -27.036  0.00  0.00    +0.000 C 
ENDBRANCH   3   5
BRANCH   1  25
ATOM     17  C   UNL     1     -40.309   0.339 -32.357  0.00  0.00    +0.000 C 
ATOM     18  C   UNL     1     -41.000  -0.961 -32.559  0.00  0.00    +0.000 A 
ATOM     19  C   UNL     1     -40.266  -2.093 -32.929  0.00  0.00    +0.000 A 
ATOM     20  C   UNL     1     -40.914  -3.316 -33.126  0.00  0.00    +0.000 A 
ATOM     21  C   UNL     1     -42.300  -3.413 -32.949  0.00  0.00    +0.000 A 
ATOM     22  C   UNL     1     -43.032  -2.276 -32.560  0.00  0.00    +0.000 A 
ATOM     23  C   UNL     1     -42.383  -1.052 -32.374  0.00  0.00    +0.000 A 
ATOM     24  O   UNL     1     -44.415  -2.378 -32.364  0.00  0.00    +0.000 OA
ATOM     25  C   UNL     1     -45.060  -3.654 -32.308  0.00  0.00    +0.000 C 
ATOM     26  C   UNL     1     -44.457  -4.599 -33.345  0.00  0.00    +0.000 C 
ATOM     27  N   UNL     1     -43.008  -4.644 -33.173  0.00  0.00    +0.000 N 
BRANCH  27  28
ATOM     28  S   UNL     1     -42.206  -6.185 -33.171  0.00  0.00    +0.000 S 
ATOM     29  C   UNL     1     -43.408  -7.497 -33.149  0.00  0.00    +0.000 C 
ATOM     30  O   UNL     1     -41.313  -6.287 -31.965  0.00  0.00    +0.000 OA
ATOM     31  O   UNL     1     -41.372  -6.322 -34.414  0.00  0.00    +0.000 OA
ENDBRANCH  27  28
ENDBRANCH   1  25
TORSDOF 3
ENDMDL
MODEL 2
REMARK VINA RESULT:      -6.8      7.988     10.638
REMARK  Name = ZINC000224489095
REMARK  3 active torsions:
REMARK  status: ('A' for Active; 'I' for Inactive)
REMARK    1  A    between atoms: C_1  and  C_25
REMARK    2  A    between atoms: N_3  and  C_5
REMARK    3  A    between atoms: N_27  and  S_28
REMARK                            x       y       z     vdW  Elec       q    Type
REMARK                         _______ _______ _______ _____ _____    ______ ____
ROOT
ATOM      1  C   UNL     1     -45.816  -6.976 -21.581  0.00  0.00    +0.000 C 
ATOM      2  O   UNL     1     -45.885  -7.966 -20.806  0.00  0.00    +0.000 OA
ATOM      3  N   UNL     1     -46.983  -6.596 -22.323  0.00  0.00    +0.000 N 
ATOM      4  H   UNL     1     -47.835  -7.006 -22.044  0.00  0.00    +0.000 HD
ENDROOT
BRANCH   3   5
ATOM      5  C   UNL     1     -47.043  -5.680 -23.429  0.00  0.00    +0.000 A 
ATOM      6  C   UNL     1     -47.001  -6.137 -24.773  0.00  0.00    +0.000 A 
ATOM      7  C   UNL     1     -47.077  -5.236 -25.856  0.00  0.00    +0.000 A 
ATOM      8  C   UNL     1     -47.203  -3.876 -25.574  0.00  0.00    +0.000 A 
ATOM      9  C   UNL     1     -47.253  -3.450 -24.288  0.00  0.00    +0.000 A 
ATOM     10  C   UNL     1     -47.380  -2.102 -24.195  0.00  0.00    +0.000 A 
ATOM     11  C   UNL     1     -47.443  -1.488 -22.940  0.00  0.00    +0.000 A 
ATOM     12  C   UNL     1     -47.376  -2.307 -21.792  0.00  0.00    +0.000 A 
ATOM     13  C   UNL     1     -47.246  -3.711 -21.911  0.00  0.00    +0.000 A 
ATOM     14  C   UNL     1     -47.181  -4.298 -23.187  0.00  0.00    +0.000 A 
ATOM     15  C   UNL     1     -47.424  -1.491 -25.558  0.00  0.00    +0.000 C 
ATOM     16  C   UNL     1     -47.312  -2.715 -26.509  0.00  0.00    +0.000 C 
ENDBRANCH   3   5
BRANCH   1  25
ATOM     17  C   UNL     1     -39.105  -6.896 -24.552  0.00  0.00    +0.000 C 
ATOM     18  C   UNL     1     -40.027  -6.465 -23.470  0.00  0.00    +0.000 A 
ATOM     19  C   UNL     1     -39.548  -5.686 -22.411  0.00  0.00    +0.000 A 
ATOM     20  C   UNL     1     -40.411  -5.285 -21.389  0.00  0.00    +0.000 A 
ATOM     21  C   UNL     1     -41.762  -5.658 -21.422  0.00  0.00    +0.000 A 
ATOM     22  C   UNL     1     -42.243  -6.427 -22.498  0.00  0.00    +0.000 A 
ATOM     23  C   UNL     1     -41.375  -6.837 -23.513  0.00  0.00    +0.000 A 
ATOM     24  O   UNL     1     -43.597  -6.783 -22.541  0.00  0.00    +0.000 OA
ATOM     25  C   UNL     1     -44.547  -6.181 -21.655  0.00  0.00    +0.000 C 
ATOM     26  C   UNL     1     -43.941  -6.011 -20.264  0.00  0.00    +0.000 C 
ATOM     27  N   UNL     1     -42.675  -5.293 -20.373  0.00  0.00    +0.000 N 
BRANCH  27  28
ATOM     28  S   UNL     1     -42.351  -3.980 -19.282  0.00  0.00    +0.000 S 
ATOM     29  C   UNL     1     -43.634  -3.881 -18.052  0.00  0.00    +0.000 C 
ATOM     30  O   UNL     1     -42.279  -2.691 -20.052  0.00  0.00    +0.000 OA
ATOM     31  O   UNL     1     -41.040  -4.213 -18.587  0.00  0.00    +0.000 OA
ENDBRANCH  27  28
ENDBRANCH   1  25
TORSDOF 3
ENDMDL
MODEL 3
REMARK VINA RESULT:      -6.6     11.737     15.158
REMARK  Name = ZINC000224489095
REMARK  3 active torsions:
REMARK  status: ('A' for Active; 'I' for Inactive)
REMARK    1  A    between atoms: C_1  and  C_25
REMARK    2  A    between atoms: N_3  and  C_5
REMARK    3  A    between atoms: N_27  and  S_28
REMARK                            x       y       z     vdW  Elec       q    Type
REMARK                         _______ _______ _______ _____ _____    ______ ____
ROOT
ATOM      1  C   UNL     1     -45.946 -14.379 -21.603  0.00  0.00    +0.000 C 
ATOM      2  O   UNL     1     -46.709 -13.404 -21.830  0.00  0.00    +0.000 OA
ATOM      3  N   UNL     1     -45.871 -14.905 -20.270  0.00  0.00    +0.000 N 
ATOM      4  H   UNL     1     -46.565 -14.604 -19.639  0.00  0.00    +0.000 HD
ENDROOT
BRANCH   3   5
ATOM      5  C   UNL     1     -44.893 -15.824 -19.758  0.00  0.00    +0.000 A 
ATOM      6  C   UNL     1     -43.587 -15.395 -19.404  0.00  0.00    +0.000 A 
ATOM      7  C   UNL     1     -42.633 -16.297 -18.885  0.00  0.00    +0.000 A 
ATOM      8  C   UNL     1     -43.011 -17.630 -18.720  0.00  0.00    +0.000 A 
ATOM      9  C   UNL     1     -44.263 -18.028 -19.050  0.00  0.00    +0.000 A 
ATOM     10  C   UNL     1     -44.462 -19.352 -18.824  0.00  0.00    +0.000 A 
ATOM     11  C   UNL     1     -45.698 -19.936 -19.112  0.00  0.00    +0.000 A 
ATOM     12  C   UNL     1     -46.720 -19.113 -19.635  0.00  0.00    +0.000 A 
ATOM     13  C   UNL     1     -46.493 -17.735 -19.863  0.00  0.00    +0.000 A 
ATOM     14  C   UNL     1     -45.237 -17.178 -19.566  0.00  0.00    +0.000 A 
ATOM     15  C   UNL     1     -43.219 -19.974 -18.273  0.00  0.00    +0.000 C 
ATOM     16  C   UNL     1     -42.221 -18.785 -18.193  0.00  0.00    +0.000 C 
ENDBRANCH   3   5
BRANCH   1  25
ATOM     17  C   UNL     1     -43.292 -13.088 -28.323  0.00  0.00    +0.000 C 
ATOM     18  C   UNL     1     -43.781 -14.056 -27.308  0.00  0.00    +0.000 A 
ATOM     19  C   UNL     1     -43.869 -15.416 -27.624  0.00  0.00    +0.000 A 
ATOM     20  C   UNL     1     -44.334 -16.329 -26.674  0.00  0.00    +0.000 A 
ATOM     21  C   UNL     1     -44.710 -15.885 -25.399  0.00  0.00    +0.000 A 
ATOM     22  C   UNL     1     -44.603 -14.519 -25.079  0.00  0.00    +0.000 A 
ATOM     23  C   UNL     1     -44.148 -13.607 -26.035  0.00  0.00    +0.000 A 
ATOM     24  O   UNL     1     -44.960 -14.079 -23.799  0.00  0.00    +0.000 OA
ATOM     25  C   UNL     1     -45.194 -15.010 -22.737  0.00  0.00    +0.000 C 
ATOM     26  C   UNL     1     -45.943 -16.234 -23.260  0.00  0.00    +0.000 C 
ATOM     27  N   UNL     1     -45.224 -16.787 -24.404  0.00  0.00    +0.000 N 
BRANCH  27  28
ATOM     28  S   UNL     1     -44.955 -18.501 -24.483  0.00  0.00    +0.000 S 
ATOM     29  C   UNL     1     -44.746 -19.160 -22.843  0.00  0.00    +0.000 C 
ATOM     30  O   UNL     1     -43.730 -18.781 -25.309  0.00  0.00    +0.000 OA
ATOM     31  O   UNL     1     -46.141 -19.170 -25.119  0.00  0.00    +0.000 OA
ENDBRANCH  27  28
ENDBRANCH   1  25
TORSDOF 3
ENDMDL
