MODEL 1
REMARK VINA RESULT:      -7.5      0.000      0.000
REMARK  Name = ZINC000003368851 ZINC03368851 CSC027878501 MCULE-2701712437 MolPort-005-844-179 PubChem-2486663
REMARK  7 active torsions:
REMARK  status: ('A' for Active; 'I' for Inactive)
REMARK    1  A    between atoms: C_6  and  C_19
REMARK    2  A    between atoms: N_10  and  C_18
REMARK    3  A    between atoms: C_19  and  O_20
REMARK    4  A    between atoms: O_20  and  C_21
REMARK    5  A    between atoms: C_21  and  C_23
REMARK    6  A    between atoms: C_23  and  S_24
REMARK    7  A    between atoms: S_24  and  C_25
REMARK                            x       y       z     vdW  Elec       q    Type
REMARK                         _______ _______ _______ _____ _____    ______ ____
ROOT
ATOM      1  C   UNL     1     -44.025 -19.039 -21.658  0.00  0.00    +0.000 A 
ATOM      2  N   UNL     1     -43.083 -19.980 -21.928  0.00  0.00    +0.000 NA
ATOM      3  C   UNL     1     -43.043 -20.579 -23.145  0.00  0.00    +0.000 A 
ATOM      4  N   UNL     1     -42.047 -21.554 -23.427  0.00  0.00    +0.000 N 
ATOM      5  N   UNL     1     -43.949 -20.243 -24.097  0.00  0.00    +0.000 NA
ATOM      6  C   UNL     1     -44.888 -19.300 -23.835  0.00  0.00    +0.000 A 
ATOM      7  N   UNL     1     -44.925 -18.700 -22.618  0.00  0.00    +0.000 NA
ATOM      8  H   UNL     1     -41.389 -21.799 -22.738  0.00  0.00    +0.000 HD
ATOM      9  H   UNL     1     -42.016 -21.984 -24.313  0.00  0.00    +0.000 HD
ATOM     10  N   UNL     1     -44.041 -18.414 -20.367  0.00  0.00    +0.000 N 
ATOM     11  H   UNL     1     -43.326 -18.679 -19.744  0.00  0.00    +0.000 HD
ENDROOT
BRANCH  10  18
ATOM     12  C   UNL     1     -46.636 -19.306 -19.458  0.00  0.00    +0.000 C 
ATOM     13  C   UNL     1     -46.251 -17.865 -19.428  0.00  0.00    +0.000 A 
ATOM     14  C   UNL     1     -47.168 -16.930 -18.936  0.00  0.00    +0.000 A 
ATOM     15  C   UNL     1     -46.838 -15.573 -18.888  0.00  0.00    +0.000 A 
ATOM     16  C   UNL     1     -45.589 -15.145 -19.339  0.00  0.00    +0.000 A 
ATOM     17  C   UNL     1     -44.670 -16.075 -19.833  0.00  0.00    +0.000 A 
ATOM     18  C   UNL     1     -44.985 -17.443 -19.879  0.00  0.00    +0.000 A 
ENDBRANCH  10  18
BRANCH   6  19
ATOM     19  C   UNL     1     -45.893 -18.943 -24.877  0.00  0.00    +0.000 C 
BRANCH  19  20
ATOM     20  O   UNL     1     -45.798 -17.559 -25.190  0.00  0.00    +0.000 OA
BRANCH  20  21
ATOM     21  C   UNL     1     -44.825 -17.056 -26.058  0.00  0.00    +0.000 C 
ATOM     22  O   UNL     1     -43.951 -17.813 -26.566  0.00  0.00    +0.000 OA
BRANCH  21  23
ATOM     23  C   UNL     1     -44.808 -15.602 -26.378  0.00  0.00    +0.000 C 
BRANCH  23  24
ATOM     24  S   UNL     1     -46.033 -14.718 -25.359  0.00  0.00    +0.000 S 
BRANCH  24  25
ATOM     25  C   UNL     1     -46.233 -13.397 -26.550  0.00  0.00    +0.000 A 
ATOM     26  C   UNL     1     -46.060 -13.654 -27.914  0.00  0.00    +0.000 A 
ATOM     27  C   UNL     1     -46.253 -12.630 -28.843  0.00  0.00    +0.000 A 
ATOM     28  C   UNL     1     -46.093 -12.937 -30.293  0.00  0.00    +0.000 C 
ATOM     29  C   UNL     1     -46.607 -11.345 -28.393  0.00  0.00    +0.000 A 
ATOM     30  C   UNL     1     -46.810 -10.280 -29.282  0.00  0.00    +0.000 A 
ATOM     31  C   UNL     1     -47.159  -9.015 -28.799  0.00  0.00    +0.000 A 
ATOM     32  C   UNL     1     -47.310  -8.806 -27.426  0.00  0.00    +0.000 A 
ATOM     33  C   UNL     1     -47.117  -9.861 -26.529  0.00  0.00    +0.000 A 
ATOM     34  C   UNL     1     -46.765 -11.128 -27.004  0.00  0.00    +0.000 A 
ATOM     35  N   UNL     1     -46.587 -12.154 -26.129  0.00  0.00    +0.000 NA
ENDBRANCH  24  25
ENDBRANCH  23  24
ENDBRANCH  21  23
ENDBRANCH  20  21
ENDBRANCH  19  20
ENDBRANCH   6  19
TORSDOF 7
ENDMDL
MODEL 2
REMARK VINA RESULT:      -7.3     12.300     15.588
REMARK  Name = ZINC000003368851 ZINC03368851 CSC027878501 MCULE-2701712437 MolPort-005-844-179 PubChem-2486663
REMARK  7 active torsions:
REMARK  status: ('A' for Active; 'I' for Inactive)
REMARK    1  A    between atoms: C_6  and  C_19
REMARK    2  A    between atoms: N_10  and  C_18
REMARK    3  A    between atoms: C_19  and  O_20
REMARK    4  A    between atoms: O_20  and  C_21
REMARK    5  A    between atoms: C_21  and  C_23
REMARK    6  A    between atoms: C_23  and  S_24
REMARK    7  A    between atoms: S_24  and  C_25
REMARK                            x       y       z     vdW  Elec       q    Type
REMARK                         _______ _______ _______ _____ _____    ______ ____
ROOT
ATOM      1  C   UNL     1     -40.484  -3.855 -33.686  0.00  0.00    +0.000 A 
ATOM      2  N   UNL     1     -39.236  -4.389 -33.638  0.00  0.00    +0.000 NA
ATOM      3  C   UNL     1     -38.814  -5.233 -34.614  0.00  0.00    +0.000 A 
ATOM      4  N   UNL     1     -37.503  -5.780 -34.566  0.00  0.00    +0.000 N 
ATOM      5  N   UNL     1     -39.641  -5.550 -35.642  0.00  0.00    +0.000 NA
ATOM      6  C   UNL     1     -40.887  -5.014 -35.698  0.00  0.00    +0.000 A 
ATOM      7  N   UNL     1     -41.306  -4.169 -34.722  0.00  0.00    +0.000 NA
ATOM      8  H   UNL     1     -36.901  -5.551 -33.821  0.00  0.00    +0.000 HD
ATOM      9  H   UNL     1     -37.196  -6.387 -35.278  0.00  0.00    +0.000 HD
ATOM     10  N   UNL     1     -40.903  -2.959 -32.647  0.00  0.00    +0.000 N 
ATOM     11  H   UNL     1     -40.233  -2.745 -31.958  0.00  0.00    +0.000 HD
ENDROOT
BRANCH  10  18
ATOM     12  C   UNL     1     -43.008  -4.402 -31.288  0.00  0.00    +0.000 C 
ATOM     13  C   UNL     1     -43.226  -3.030 -31.832  0.00  0.00    +0.000 A 
ATOM     14  C   UNL     1     -44.478  -2.428 -31.665  0.00  0.00    +0.000 A 
ATOM     15  C   UNL     1     -44.716  -1.142 -32.157  0.00  0.00    +0.000 A 
ATOM     16  C   UNL     1     -43.701  -0.453 -32.822  0.00  0.00    +0.000 A 
ATOM     17  C   UNL     1     -42.449  -1.051 -32.993  0.00  0.00    +0.000 A 
ATOM     18  C   UNL     1     -42.194  -2.339 -32.496  0.00  0.00    +0.000 A 
ENDBRANCH  10  18
BRANCH   6  19
ATOM     19  C   UNL     1     -41.801  -5.375 -36.819  0.00  0.00    +0.000 C 
BRANCH  19  20
ATOM     20  O   UNL     1     -42.464  -6.600 -36.530  0.00  0.00    +0.000 OA
BRANCH  20  21
ATOM     21  C   UNL     1     -43.754  -6.875 -36.993  0.00  0.00    +0.000 C 
ATOM     22  O   UNL     1     -44.042  -6.775 -38.217  0.00  0.00    +0.000 OA
BRANCH  21  23
ATOM     23  C   UNL     1     -44.809  -7.279 -36.022  0.00  0.00    +0.000 C 
BRANCH  23  24
ATOM     24  S   UNL     1     -44.051  -7.890 -34.482  0.00  0.00    +0.000 S 
BRANCH  24  25
ATOM     25  C   UNL     1     -45.066  -6.849 -33.440  0.00  0.00    +0.000 A 
ATOM     26  C   UNL     1     -45.732  -5.747 -33.989  0.00  0.00    +0.000 A 
ATOM     27  C   UNL     1     -46.552  -4.959 -33.180  0.00  0.00    +0.000 A 
ATOM     28  C   UNL     1     -47.275  -3.809 -33.795  0.00  0.00    +0.000 C 
ATOM     29  C   UNL     1     -46.689  -5.275 -31.816  0.00  0.00    +0.000 A 
ATOM     30  C   UNL     1     -47.498  -4.516 -30.958  0.00  0.00    +0.000 A 
ATOM     31  C   UNL     1     -47.610  -4.858 -29.608  0.00  0.00    +0.000 A 
ATOM     32  C   UNL     1     -46.917  -5.963 -29.104  0.00  0.00    +0.000 A 
ATOM     33  C   UNL     1     -46.113  -6.732 -29.950  0.00  0.00    +0.000 A 
ATOM     34  C   UNL     1     -45.993  -6.394 -31.301  0.00  0.00    +0.000 A 
ATOM     35  N   UNL     1     -45.217  -7.151 -32.123  0.00  0.00    +0.000 NA
ENDBRANCH  24  25
ENDBRANCH  23  24
ENDBRANCH  21  23
ENDBRANCH  20  21
ENDBRANCH  19  20
ENDBRANCH   6  19
TORSDOF 7
ENDMDL
MODEL 3
REMARK VINA RESULT:      -7.2      3.848      6.199
REMARK  Name = ZINC000003368851 ZINC03368851 CSC027878501 MCULE-2701712437 MolPort-005-844-179 PubChem-2486663
REMARK  7 active torsions:
REMARK  status: ('A' for Active; 'I' for Inactive)
REMARK    1  A    between atoms: C_6  and  C_19
REMARK    2  A    between atoms: N_10  and  C_18
REMARK    3  A    between atoms: C_19  and  O_20
REMARK    4  A    between atoms: O_20  and  C_21
REMARK    5  A    between atoms: C_21  and  C_23
REMARK    6  A    between atoms: C_23  and  S_24
REMARK    7  A    between atoms: S_24  and  C_25
REMARK                            x       y       z     vdW  Elec       q    Type
REMARK                         _______ _______ _______ _____ _____    ______ ____
ROOT
ATOM      1  C   UNL     1     -43.258 -19.932 -21.143  0.00  0.00    +0.000 A 
ATOM      2  N   UNL     1     -42.538 -20.244 -20.034  0.00  0.00    +0.000 NA
ATOM      3  C   UNL     1     -43.048 -20.006 -18.798  0.00  0.00    +0.000 A 
ATOM      4  N   UNL     1     -42.296 -20.346 -17.640  0.00  0.00    +0.000 N 
ATOM      5  N   UNL     1     -44.278 -19.450 -18.667  0.00  0.00    +0.000 NA
ATOM      6  C   UNL     1     -45.003 -19.142 -19.771  0.00  0.00    +0.000 A 
ATOM      7  N   UNL     1     -44.493 -19.383 -21.006  0.00  0.00    +0.000 NA
ATOM      8  H   UNL     1     -41.403 -20.750 -17.734  0.00  0.00    +0.000 HD
ATOM      9  H   UNL     1     -42.669 -20.178 -16.744  0.00  0.00    +0.000 HD
ATOM     10  N   UNL     1     -42.701 -20.201 -22.437  0.00  0.00    +0.000 N 
ATOM     11  H   UNL     1     -41.822 -20.644 -22.452  0.00  0.00    +0.000 HD
ENDROOT
BRANCH  10  18
ATOM     12  C   UNL     1     -40.985 -20.028 -24.758  0.00  0.00    +0.000 C 
ATOM     13  C   UNL     1     -42.458 -19.813 -24.858  0.00  0.00    +0.000 A 
ATOM     14  C   UNL     1     -43.016 -19.534 -26.110  0.00  0.00    +0.000 A 
ATOM     15  C   UNL     1     -44.394 -19.333 -26.241  0.00  0.00    +0.000 A 
ATOM     16  C   UNL     1     -45.217 -19.406 -25.117  0.00  0.00    +0.000 A 
ATOM     17  C   UNL     1     -44.663 -19.682 -23.864  0.00  0.00    +0.000 A 
ATOM     18  C   UNL     1     -43.283 -19.895 -23.719  0.00  0.00    +0.000 A 
ENDBRANCH  10  18
BRANCH   6  19
ATOM     19  C   UNL     1     -46.349 -18.516 -19.626  0.00  0.00    +0.000 C 
BRANCH  19  20
ATOM     20  O   UNL     1     -46.342 -17.212 -20.192  0.00  0.00    +0.000 OA
BRANCH  20  21
ATOM     21  C   UNL     1     -45.699 -16.135 -19.574  0.00  0.00    +0.000 C 
ATOM     22  O   UNL     1     -45.831 -15.920 -18.337  0.00  0.00    +0.000 OA
BRANCH  21  23
ATOM     23  C   UNL     1     -44.858 -15.218 -20.392  0.00  0.00    +0.000 C 
BRANCH  23  24
ATOM     24  S   UNL     1     -43.272 -16.015 -20.805  0.00  0.00    +0.000 S 
BRANCH  24  25
ATOM     25  C   UNL     1     -43.589 -15.982 -22.566  0.00  0.00    +0.000 A 
ATOM     26  C   UNL     1     -44.896 -15.814 -23.038  0.00  0.00    +0.000 A 
ATOM     27  C   UNL     1     -45.134 -15.753 -24.412  0.00  0.00    +0.000 A 
ATOM     28  C   UNL     1     -46.531 -15.542 -24.889  0.00  0.00    +0.000 C 
ATOM     29  C   UNL     1     -44.057 -15.872 -25.308  0.00  0.00    +0.000 A 
ATOM     30  C   UNL     1     -44.240 -15.819 -26.697  0.00  0.00    +0.000 A 
ATOM     31  C   UNL     1     -43.146 -15.943 -27.558  0.00  0.00    +0.000 A 
ATOM     32  C   UNL     1     -41.861 -16.119 -27.038  0.00  0.00    +0.000 A 
ATOM     33  C   UNL     1     -41.663 -16.167 -25.655  0.00  0.00    +0.000 A 
ATOM     34  C   UNL     1     -42.752 -16.047 -24.787  0.00  0.00    +0.000 A 
ATOM     35  N   UNL     1     -42.555 -16.084 -23.442  0.00  0.00    +0.000 NA
ENDBRANCH  24  25
ENDBRANCH  23  24
ENDBRANCH  21  23
ENDBRANCH  20  21
ENDBRANCH  19  20
ENDBRANCH   6  19
TORSDOF 7
ENDMDL
