MODEL 1
REMARK VINA RESULT:      -6.3      0.000      0.000
REMARK  Name = ZINC000096114852
REMARK  11 active torsions:
REMARK  status: ('A' for Active; 'I' for Inactive)
REMARK    1  A    between atoms: C_1  and  C_28
REMARK    2  A    between atoms: C_2  and  O_3
REMARK    3  A    between atoms: C_5  and  O_6
REMARK    4  A    between atoms: C_10  and  O_11
REMARK    5  A    between atoms: C_12  and  C_18
REMARK    6  A    between atoms: C_21  and  O_22
REMARK    7  A    between atoms: C_23  and  O_24
REMARK    8  A    between atoms: C_28  and  C_29
REMARK    9  A    between atoms: C_28  and  C_36
REMARK   10  A    between atoms: C_36  and  C_37
REMARK   11  A    between atoms: C_37  and  O_40
REMARK                            x       y       z     vdW  Elec       q    Type
REMARK                         _______ _______ _______ _____ _____    ______ ____
ROOT
ATOM      1  C   UNL     1     -44.234 -18.313 -22.392  0.00  0.00    +0.000 A 
ATOM      2  C   UNL     1     -43.898 -19.371 -23.252  0.00  0.00    +0.000 A 
ATOM      3  C   UNL     1     -44.139 -19.274 -24.620  0.00  0.00    +0.000 A 
ATOM      4  C   UNL     1     -44.714 -18.128 -25.165  0.00  0.00    +0.000 A 
ATOM      5  C   UNL     1     -45.049 -17.041 -24.327  0.00  0.00    +0.000 A 
ATOM      6  C   UNL     1     -45.610 -15.843 -24.816  0.00  0.00    +0.000 A 
ATOM      7  O   UNL     1     -45.849 -15.689 -26.045  0.00  0.00    +0.000 OA
ATOM      8  C   UNL     1     -45.896 -14.800 -23.931  0.00  0.00    +0.000 A 
ATOM      9  C   UNL     1     -45.617 -14.966 -22.559  0.00  0.00    +0.000 A 
ATOM     10  O   UNL     1     -45.087 -16.112 -22.139  0.00  0.00    +0.000 OA
ATOM     11  C   UNL     1     -44.801 -17.137 -22.935  0.00  0.00    +0.000 A 
ENDROOT
BRANCH   9  12
ATOM     12  C   UNL     1     -45.879 -13.913 -21.544  0.00  0.00    +0.000 A 
ATOM     13  C   UNL     1     -47.137 -13.863 -20.923  0.00  0.00    +0.000 A 
ATOM     14  C   UNL     1     -47.429 -12.872 -19.980  0.00  0.00    +0.000 A 
ATOM     15  C   UNL     1     -46.467 -11.915 -19.650  0.00  0.00    +0.000 A 
ATOM     16  C   UNL     1     -45.210 -11.948 -20.265  0.00  0.00    +0.000 A 
ATOM     17  C   UNL     1     -44.923 -12.942 -21.206  0.00  0.00    +0.000 A 
BRANCH  15  18
ATOM     18  O   UNL     1     -46.768 -10.931 -18.717  0.00  0.00    +0.000 OA
ATOM     19  H   UNL     1     -47.660 -10.703 -18.546  0.00  0.00    +0.000 HD
ENDBRANCH  15  18
BRANCH  16  20
ATOM     20  O   UNL     1     -44.249 -10.997 -19.953  0.00  0.00    +0.000 OA
ATOM     21  H   UNL     1     -44.476 -10.088 -19.940  0.00  0.00    +0.000 HD
ENDBRANCH  16  20
ENDBRANCH   9  12
BRANCH   8  22
ATOM     22  O   UNL     1     -46.431 -13.613 -24.426  0.00  0.00    +0.000 OA
ATOM     23  H   UNL     1     -45.879 -12.867 -24.551  0.00  0.00    +0.000 HD
ENDBRANCH   8  22
BRANCH   4  24
ATOM     24  O   UNL     1     -44.939 -18.089 -26.537  0.00  0.00    +0.000 OA
ATOM     25  H   UNL     1     -44.626 -17.363 -27.042  0.00  0.00    +0.000 HD
ENDBRANCH   4  24
BRANCH   2  26
ATOM     26  O   UNL     1     -43.326 -20.536 -22.750  0.00  0.00    +0.000 OA
ATOM     27  H   UNL     1     -43.725 -20.980 -22.028  0.00  0.00    +0.000 HD
ENDBRANCH   2  26
BRANCH   1  28
ATOM     28  C   UNL     1     -43.980 -18.487 -20.914  0.00  0.00    +0.000 C 
BRANCH  28  29
ATOM     29  C   UNL     1     -44.914 -17.709 -20.029  0.00  0.00    +0.000 A 
ATOM     30  C   UNL     1     -44.385 -16.631 -19.309  0.00  0.00    +0.000 A 
ATOM     31  C   UNL     1     -45.198 -15.869 -18.467  0.00  0.00    +0.000 A 
ATOM     32  C   UNL     1     -46.553 -16.180 -18.340  0.00  0.00    +0.000 A 
ATOM     33  C   UNL     1     -47.092 -17.255 -19.050  0.00  0.00    +0.000 A 
ATOM     34  C   UNL     1     -46.281 -18.022 -19.891  0.00  0.00    +0.000 A 
ATOM     35  F   UNL     1     -46.840 -19.045 -20.580  0.00  0.00    +0.000 F 
ENDBRANCH  28  29
BRANCH  28  36
ATOM     36  C   UNL     1     -42.513 -18.464 -20.489  0.00  0.00    +0.000 C 
BRANCH  36  37
ATOM     37  C   UNL     1     -42.214 -19.621 -19.592  0.00  0.00    +0.000 C 
ATOM     38  O   UNL     1     -42.509 -20.785 -19.975  0.00  0.00    +0.000 OA
BRANCH  37  40
ATOM     39  C   UNL     1     -42.397 -19.087 -17.187  0.00  0.00    +0.000 C 
ATOM     40  O   UNL     1     -41.638 -19.444 -18.332  0.00  0.00    +0.000 OA
ENDBRANCH  37  40
ENDBRANCH  36  37
ENDBRANCH  28  36
ENDBRANCH   1  28
TORSDOF 11
ENDMDL
MODEL 2
REMARK VINA RESULT:      -6.3     11.866     16.124
REMARK  Name = ZINC000096114852
REMARK  11 active torsions:
REMARK  status: ('A' for Active; 'I' for Inactive)
REMARK    1  A    between atoms: C_1  and  C_28
REMARK    2  A    between atoms: C_2  and  O_3
REMARK    3  A    between atoms: C_5  and  O_6
REMARK    4  A    between atoms: C_10  and  O_11
REMARK    5  A    between atoms: C_12  and  C_18
REMARK    6  A    between atoms: C_21  and  O_22
REMARK    7  A    between atoms: C_23  and  O_24
REMARK    8  A    between atoms: C_28  and  C_29
REMARK    9  A    between atoms: C_28  and  C_36
REMARK   10  A    between atoms: C_36  and  C_37
REMARK   11  A    between atoms: C_37  and  O_40
REMARK                            x       y       z     vdW  Elec       q    Type
REMARK                         _______ _______ _______ _____ _____    ______ ____
ROOT
ATOM      1  C   UNL     1     -46.158  -5.065 -31.167  0.00  0.00    +0.000 A 
ATOM      2  C   UNL     1     -46.622  -3.993 -30.387  0.00  0.00    +0.000 A 
ATOM      3  C   UNL     1     -47.018  -4.199 -29.067  0.00  0.00    +0.000 A 
ATOM      4  C   UNL     1     -46.961  -5.468 -28.494  0.00  0.00    +0.000 A 
ATOM      5  C   UNL     1     -46.485  -6.562 -29.249  0.00  0.00    +0.000 A 
ATOM      6  C   UNL     1     -46.379  -7.866 -28.723  0.00  0.00    +0.000 A 
ATOM      7  O   UNL     1     -46.717  -8.119 -27.534  0.00  0.00    +0.000 OA
ATOM      8  C   UNL     1     -45.878  -8.897 -29.522  0.00  0.00    +0.000 A 
ATOM      9  C   UNL     1     -45.488  -8.613 -30.847  0.00  0.00    +0.000 A 
ATOM     10  O   UNL     1     -45.604  -7.369 -31.305  0.00  0.00    +0.000 OA
ATOM     11  C   UNL     1     -46.078  -6.354 -30.591  0.00  0.00    +0.000 A 
ENDROOT
BRANCH   9  12
ATOM     12  C   UNL     1     -44.938  -9.640 -31.770  0.00  0.00    +0.000 A 
ATOM     13  C   UNL     1     -43.563  -9.636 -32.053  0.00  0.00    +0.000 A 
ATOM     14  C   UNL     1     -43.013 -10.573 -32.933  0.00  0.00    +0.000 A 
ATOM     15  C   UNL     1     -43.832 -11.522 -33.548  0.00  0.00    +0.000 A 
ATOM     16  C   UNL     1     -45.206 -11.535 -33.279  0.00  0.00    +0.000 A 
ATOM     17  C   UNL     1     -45.752 -10.597 -32.397  0.00  0.00    +0.000 A 
BRANCH  15  18
ATOM     18  O   UNL     1     -43.279 -12.445 -34.426  0.00  0.00    +0.000 OA
ATOM     19  H   UNL     1     -42.607 -12.180 -35.022  0.00  0.00    +0.000 HD
ENDBRANCH  15  18
BRANCH  16  20
ATOM     20  O   UNL     1     -46.034 -12.468 -33.890  0.00  0.00    +0.000 OA
ATOM     21  H   UNL     1     -46.869 -12.205 -34.224  0.00  0.00    +0.000 HD
ENDBRANCH  16  20
ENDBRANCH   9  12
BRANCH   8  22
ATOM     22  O   UNL     1     -45.757 -10.177 -28.987  0.00  0.00    +0.000 OA
ATOM     23  H   UNL     1     -46.177 -10.388 -28.177  0.00  0.00    +0.000 HD
ENDBRANCH   8  22
BRANCH   4  24
ATOM     24  O   UNL     1     -47.377  -5.616 -27.175  0.00  0.00    +0.000 OA
ATOM     25  H   UNL     1     -47.179  -4.951 -26.544  0.00  0.00    +0.000 HD
ENDBRANCH   4  24
BRANCH   2  26
ATOM     26  O   UNL     1     -46.699  -2.711 -30.920  0.00  0.00    +0.000 OA
ATOM     27  H   UNL     1     -46.012  -2.095 -30.761  0.00  0.00    +0.000 HD
ENDBRANCH   2  26
BRANCH   1  28
ATOM     28  C   UNL     1     -45.774  -4.788 -32.601  0.00  0.00    +0.000 C 
BRANCH  28  29
ATOM     29  C   UNL     1     -44.705  -3.743 -32.764  0.00  0.00    +0.000 A 
ATOM     30  C   UNL     1     -45.021  -2.596 -33.502  0.00  0.00    +0.000 A 
ATOM     31  C   UNL     1     -44.074  -1.588 -33.693  0.00  0.00    +0.000 A 
ATOM     32  C   UNL     1     -42.797  -1.721 -33.144  0.00  0.00    +0.000 A 
ATOM     33  C   UNL     1     -42.467  -2.862 -32.409  0.00  0.00    +0.000 A 
ATOM     34  C   UNL     1     -43.412  -3.874 -32.218  0.00  0.00    +0.000 A 
ATOM     35  F   UNL     1     -43.067  -4.958 -31.484  0.00  0.00    +0.000 F 
ENDBRANCH  28  29
BRANCH  28  36
ATOM     36  C   UNL     1     -46.934  -4.690 -33.588  0.00  0.00    +0.000 C 
BRANCH  36  37
ATOM     37  C   UNL     1     -46.691  -5.577 -34.766  0.00  0.00    +0.000 C 
ATOM     38  O   UNL     1     -47.400  -5.435 -35.797  0.00  0.00    +0.000 OA
BRANCH  37  40
ATOM     39  C   UNL     1     -46.014  -7.946 -34.963  0.00  0.00    +0.000 C 
ATOM     40  O   UNL     1     -45.714  -6.575 -34.743  0.00  0.00    +0.000 OA
ENDBRANCH  37  40
ENDBRANCH  36  37
ENDBRANCH  28  36
ENDBRANCH   1  28
TORSDOF 11
ENDMDL
MODEL 3
REMARK VINA RESULT:      -6.1      9.733     13.499
REMARK  Name = ZINC000096114852
REMARK  11 active torsions:
REMARK  status: ('A' for Active; 'I' for Inactive)
REMARK    1  A    between atoms: C_1  and  C_28
REMARK    2  A    between atoms: C_2  and  O_3
REMARK    3  A    between atoms: C_5  and  O_6
REMARK    4  A    between atoms: C_10  and  O_11
REMARK    5  A    between atoms: C_12  and  C_18
REMARK    6  A    between atoms: C_21  and  O_22
REMARK    7  A    between atoms: C_23  and  O_24
REMARK    8  A    between atoms: C_28  and  C_29
REMARK    9  A    between atoms: C_28  and  C_36
REMARK   10  A    between atoms: C_36  and  C_37
REMARK   11  A    between atoms: C_37  and  O_40
REMARK                            x       y       z     vdW  Elec       q    Type
REMARK                         _______ _______ _______ _____ _____    ______ ____
ROOT
ATOM      1  C   UNL     1     -46.329  -6.978 -28.947  0.00  0.00    +0.000 A 
ATOM      2  C   UNL     1     -46.908  -5.876 -28.296  0.00  0.00    +0.000 A 
ATOM      3  C   UNL     1     -47.367  -4.784 -29.028  0.00  0.00    +0.000 A 
ATOM      4  C   UNL     1     -47.265  -4.762 -30.417  0.00  0.00    +0.000 A 
ATOM      5  C   UNL     1     -46.702  -5.861 -31.101  0.00  0.00    +0.000 A 
ATOM      6  C   UNL     1     -46.593  -5.913 -32.506  0.00  0.00    +0.000 A 
ATOM      7  O   UNL     1     -46.993  -4.959 -33.228  0.00  0.00    +0.000 OA
ATOM      8  C   UNL     1     -46.044  -7.045 -33.116  0.00  0.00    +0.000 A 
ATOM      9  C   UNL     1     -45.607  -8.117 -32.312  0.00  0.00    +0.000 A 
ATOM     10  O   UNL     1     -45.729  -8.028 -30.990  0.00  0.00    +0.000 OA
ATOM     11  C   UNL     1     -46.238  -6.975 -30.358  0.00  0.00    +0.000 A 
ENDROOT
BRANCH   9  12
ATOM     12  C   UNL     1     -45.018  -9.362 -32.869  0.00  0.00    +0.000 A 
ATOM     13  C   UNL     1     -43.625  -9.450 -33.017  0.00  0.00    +0.000 A 
ATOM     14  C   UNL     1     -43.036 -10.596 -33.559  0.00  0.00    +0.000 A 
ATOM     15  C   UNL     1     -43.833 -11.669 -33.965  0.00  0.00    +0.000 A 
ATOM     16  C   UNL     1     -45.224 -11.594 -33.829  0.00  0.00    +0.000 A 
ATOM     17  C   UNL     1     -45.809 -10.446 -33.285  0.00  0.00    +0.000 A 
BRANCH  15  18
ATOM     18  O   UNL     1     -43.239 -12.801 -34.508  0.00  0.00    +0.000 OA
ATOM     19  H   UNL     1     -42.858 -13.446 -33.946  0.00  0.00    +0.000 HD
ENDBRANCH  15  18
BRANCH  16  20
ATOM     20  O   UNL     1     -46.029 -12.649 -34.237  0.00  0.00    +0.000 OA
ATOM     21  H   UNL     1     -46.698 -12.507 -34.878  0.00  0.00    +0.000 HD
ENDBRANCH  16  20
ENDBRANCH   9  12
BRANCH   8  22
ATOM     22  O   UNL     1     -45.959  -7.096 -34.506  0.00  0.00    +0.000 OA
ATOM     23  H   UNL     1     -45.418  -6.483 -34.965  0.00  0.00    +0.000 HD
ENDBRANCH   8  22
BRANCH   4  24
ATOM     24  O   UNL     1     -47.734  -3.641 -31.096  0.00  0.00    +0.000 OA
ATOM     25  H   UNL     1     -47.220  -3.260 -31.781  0.00  0.00    +0.000 HD
ENDBRANCH   4  24
BRANCH   2  26
ATOM     26  O   UNL     1     -47.024  -5.855 -26.910  0.00  0.00    +0.000 OA
ATOM     27  H   UNL     1     -47.000  -6.657 -26.425  0.00  0.00    +0.000 HD
ENDBRANCH   2  26
BRANCH   1  28
ATOM     28  C   UNL     1     -45.819  -8.119 -28.100  0.00  0.00    +0.000 C 
BRANCH  28  29
ATOM     29  C   UNL     1     -44.344  -8.377 -28.232  0.00  0.00    +0.000 A 
ATOM     30  C   UNL     1     -43.940  -9.620 -28.735  0.00  0.00    +0.000 A 
ATOM     31  C   UNL     1     -42.585  -9.924 -28.880  0.00  0.00    +0.000 A 
ATOM     32  C   UNL     1     -41.618  -8.982 -28.523  0.00  0.00    +0.000 A 
ATOM     33  C   UNL     1     -42.007  -7.739 -28.018  0.00  0.00    +0.000 A 
ATOM     34  C   UNL     1     -43.363  -7.432 -27.868  0.00  0.00    +0.000 A 
ATOM     35  F   UNL     1     -43.706  -6.211 -27.394  0.00  0.00    +0.000 F 
ENDBRANCH  28  29
BRANCH  28  36
ATOM     36  C   UNL     1     -46.697  -9.369 -28.079  0.00  0.00    +0.000 C 
BRANCH  36  37
ATOM     37  C   UNL     1     -47.182  -9.639 -26.691  0.00  0.00    +0.000 C 
ATOM     38  O   UNL     1     -47.421  -8.667 -25.926  0.00  0.00    +0.000 OA
BRANCH  37  40
ATOM     39  C   UNL     1     -46.617 -12.045 -26.718  0.00  0.00    +0.000 C 
ATOM     40  O   UNL     1     -47.354 -10.941 -26.214  0.00  0.00    +0.000 OA
ENDBRANCH  37  40
ENDBRANCH  36  37
ENDBRANCH  28  36
ENDBRANCH   1  28
TORSDOF 11
ENDMDL
