MODEL 1
REMARK VINA RESULT:      -6.4      0.000      0.000
REMARK  Name = ZINC000230157758 PubChem-100900615
REMARK  9 active torsions:
REMARK  status: ('A' for Active; 'I' for Inactive)
REMARK    1  A    between atoms: N_13  and  C_20
REMARK    2  A    between atoms: C_20  and  C_21
REMARK    3  A    between atoms: C_21  and  O_22
REMARK    4  A    between atoms: C_21  and  C_24
REMARK    5  A    between atoms: C_24  and  O_25
REMARK    6  A    between atoms: C_24  and  C_27
REMARK    7  A    between atoms: C_27  and  O_28
REMARK    8  A    between atoms: C_27  and  C_30
REMARK    9  A    between atoms: C_30  and  O_31
REMARK                            x       y       z     vdW  Elec       q    Type
REMARK                         _______ _______ _______ _____ _____    ______ ____
ROOT
ATOM      1  C   UNL     1     -46.931  -4.356 -22.835  0.00  0.00    +0.000 C 
ATOM      2  C   UNL     1     -47.001  -4.284 -24.323  0.00  0.00    +0.000 A 
ATOM      3  C   UNL     1     -46.757  -5.445 -25.064  0.00  0.00    +0.000 A 
ATOM      4  C   UNL     1     -46.815  -5.413 -26.458  0.00  0.00    +0.000 A 
ATOM      5  C   UNL     1     -46.574  -6.564 -27.205  0.00  0.00    +0.000 A 
ATOM      6  C   UNL     1     -46.636  -6.511 -28.603  0.00  0.00    +0.000 A 
ATOM      7  C   UNL     1     -46.945  -5.290 -29.239  0.00  0.00    +0.000 A 
ATOM      8  N   UNL     1     -47.174  -4.178 -28.482  0.00  0.00    +0.000 NA
ATOM      9  C   UNL     1     -47.118  -4.208 -27.124  0.00  0.00    +0.000 A 
ATOM     10  C   UNL     1     -47.361  -3.048 -26.385  0.00  0.00    +0.000 A 
ATOM     11  C   UNL     1     -47.304  -3.079 -24.987  0.00  0.00    +0.000 A 
ATOM     12  C   UNL     1     -47.570  -1.819 -24.234  0.00  0.00    +0.000 C 
ATOM     13  N   UNL     1     -47.010  -5.230 -30.604  0.00  0.00    +0.000 N 
ATOM     14  C   UNL     1     -46.770  -6.351 -31.353  0.00  0.00    +0.000 A 
ATOM     15  O   UNL     1     -46.821  -6.306 -32.612  0.00  0.00    +0.000 OA
ATOM     16  N   UNL     1     -46.472  -7.530 -30.747  0.00  0.00    +0.000 N 
ATOM     17  C   UNL     1     -46.401  -7.637 -29.396  0.00  0.00    +0.000 A 
ATOM     18  O   UNL     1     -46.122  -8.750 -28.875  0.00  0.00    +0.000 OA
ATOM     19  H   UNL     1     -46.304  -8.326 -31.301  0.00  0.00    +0.000 HD
ENDROOT
BRANCH  13  20
ATOM     20  C   UNL     1     -47.343  -3.968 -31.268  0.00  0.00    +0.000 C 
BRANCH  20  21
ATOM     21  C   UNL     1     -46.109  -3.082 -31.385  0.00  0.00    +0.000 C 
BRANCH  21  22
ATOM     22  O   UNL     1     -45.069  -3.638 -30.636  0.00  0.00    +0.000 OA
ATOM     23  H   UNL     1     -44.665  -2.951 -30.084  0.00  0.00    +0.000 HD
ENDBRANCH  21  22
BRANCH  21  24
ATOM     24  C   UNL     1     -45.682  -2.938 -32.851  0.00  0.00    +0.000 C 
BRANCH  24  25
ATOM     25  O   UNL     1     -46.638  -3.512 -33.693  0.00  0.00    +0.000 OA
ATOM     26  H   UNL     1     -47.407  -3.786 -33.170  0.00  0.00    +0.000 HD
ENDBRANCH  24  25
BRANCH  24  27
ATOM     27  C   UNL     1     -44.304  -3.544 -33.152  0.00  0.00    +0.000 C 
BRANCH  27  28
ATOM     28  O   UNL     1     -44.441  -4.823 -33.692  0.00  0.00    +0.000 OA
ATOM     29  H   UNL     1     -43.779  -4.952 -34.390  0.00  0.00    +0.000 HD
ENDBRANCH  27  28
BRANCH  27  30
ATOM     30  C   UNL     1     -43.455  -2.681 -34.079  0.00  0.00    +0.000 C 
BRANCH  30  31
ATOM     31  O   UNL     1     -44.140  -1.513 -34.411  0.00  0.00    +0.000 OA
ATOM     32  H   UNL     1     -43.548  -0.751 -34.312  0.00  0.00    +0.000 HD
ENDBRANCH  30  31
ENDBRANCH  27  30
ENDBRANCH  24  27
ENDBRANCH  21  24
ENDBRANCH  20  21
ENDBRANCH  13  20
TORSDOF 9
ENDMDL
MODEL 2
REMARK VINA RESULT:      -6.1      2.597      5.668
REMARK  Name = ZINC000230157758 PubChem-100900615
REMARK  9 active torsions:
REMARK  status: ('A' for Active; 'I' for Inactive)
REMARK    1  A    between atoms: N_13  and  C_20
REMARK    2  A    between atoms: C_20  and  C_21
REMARK    3  A    between atoms: C_21  and  O_22
REMARK    4  A    between atoms: C_21  and  C_24
REMARK    5  A    between atoms: C_24  and  O_25
REMARK    6  A    between atoms: C_24  and  C_27
REMARK    7  A    between atoms: C_27  and  O_28
REMARK    8  A    between atoms: C_27  and  C_30
REMARK    9  A    between atoms: C_30  and  O_31
REMARK                            x       y       z     vdW  Elec       q    Type
REMARK                         _______ _______ _______ _____ _____    ______ ____
ROOT
ATOM      1  C   UNL     1     -47.380  -1.550 -23.180  0.00  0.00    +0.000 C 
ATOM      2  C   UNL     1     -47.248  -2.788 -24.000  0.00  0.00    +0.000 A 
ATOM      3  C   UNL     1     -47.281  -2.677 -25.394  0.00  0.00    +0.000 A 
ATOM      4  C   UNL     1     -47.161  -3.817 -26.192  0.00  0.00    +0.000 A 
ATOM      5  C   UNL     1     -47.193  -3.717 -27.581  0.00  0.00    +0.000 A 
ATOM      6  C   UNL     1     -47.070  -4.872 -28.363  0.00  0.00    +0.000 A 
ATOM      7  C   UNL     1     -46.914  -6.125 -27.733  0.00  0.00    +0.000 A 
ATOM      8  N   UNL     1     -46.889  -6.192 -26.370  0.00  0.00    +0.000 NA
ATOM      9  C   UNL     1     -47.006  -5.084 -25.593  0.00  0.00    +0.000 A 
ATOM     10  C   UNL     1     -46.973  -5.195 -24.201  0.00  0.00    +0.000 A 
ATOM     11  C   UNL     1     -47.093  -4.054 -23.400  0.00  0.00    +0.000 A 
ATOM     12  C   UNL     1     -47.053  -4.214 -21.918  0.00  0.00    +0.000 C 
ATOM     13  N   UNL     1     -46.791  -7.258 -28.490  0.00  0.00    +0.000 N 
ATOM     14  C   UNL     1     -46.826  -7.178 -29.857  0.00  0.00    +0.000 A 
ATOM     15  O   UNL     1     -46.720  -8.217 -30.564  0.00  0.00    +0.000 OA
ATOM     16  N   UNL     1     -46.977  -5.975 -30.470  0.00  0.00    +0.000 N 
ATOM     17  C   UNL     1     -47.098  -4.825 -29.759  0.00  0.00    +0.000 A 
ATOM     18  O   UNL     1     -47.235  -3.730 -30.368  0.00  0.00    +0.000 OA
ATOM     19  H   UNL     1     -46.998  -5.936 -31.453  0.00  0.00    +0.000 HD
ENDROOT
BRANCH  13  20
ATOM     20  C   UNL     1     -46.615  -8.559 -27.841  0.00  0.00    +0.000 C 
BRANCH  20  21
ATOM     21  C   UNL     1     -45.167  -9.020 -27.947  0.00  0.00    +0.000 C 
BRANCH  21  22
ATOM     22  O   UNL     1     -44.608  -9.084 -26.668  0.00  0.00    +0.000 OA
ATOM     23  H   UNL     1     -45.149  -9.662 -26.108  0.00  0.00    +0.000 HD
ENDBRANCH  21  22
BRANCH  21  24
ATOM     24  C   UNL     1     -45.084 -10.392 -28.626  0.00  0.00    +0.000 C 
BRANCH  24  25
ATOM     25  O   UNL     1     -44.542 -10.268 -29.908  0.00  0.00    +0.000 OA
ATOM     26  H   UNL     1     -43.649  -9.894 -29.846  0.00  0.00    +0.000 HD
ENDBRANCH  24  25
BRANCH  24  27
ATOM     27  C   UNL     1     -46.434 -11.119 -28.709  0.00  0.00    +0.000 C 
BRANCH  27  28
ATOM     28  O   UNL     1     -46.807 -11.305 -30.040  0.00  0.00    +0.000 OA
ATOM     29  H   UNL     1     -46.426 -10.598 -30.585  0.00  0.00    +0.000 HD
ENDBRANCH  27  28
BRANCH  27  30
ATOM     30  C   UNL     1     -46.444 -12.458 -27.979  0.00  0.00    +0.000 C 
BRANCH  30  31
ATOM     31  O   UNL     1     -47.756 -12.872 -27.751  0.00  0.00    +0.000 OA
ATOM     32  H   UNL     1     -48.341 -12.480 -28.418  0.00  0.00    +0.000 HD
ENDBRANCH  30  31
ENDBRANCH  27  30
ENDBRANCH  24  27
ENDBRANCH  21  24
ENDBRANCH  20  21
ENDBRANCH  13  20
TORSDOF 9
ENDMDL
MODEL 3
REMARK VINA RESULT:      -5.9     12.258     15.356
REMARK  Name = ZINC000230157758 PubChem-100900615
REMARK  9 active torsions:
REMARK  status: ('A' for Active; 'I' for Inactive)
REMARK    1  A    between atoms: N_13  and  C_20
REMARK    2  A    between atoms: C_20  and  C_21
REMARK    3  A    between atoms: C_21  and  O_22
REMARK    4  A    between atoms: C_21  and  C_24
REMARK    5  A    between atoms: C_24  and  O_25
REMARK    6  A    between atoms: C_24  and  C_27
REMARK    7  A    between atoms: C_27  and  O_28
REMARK    8  A    between atoms: C_27  and  C_30
REMARK    9  A    between atoms: C_30  and  O_31
REMARK                            x       y       z     vdW  Elec       q    Type
REMARK                         _______ _______ _______ _____ _____    ______ ____
ROOT
ATOM      1  C   UNL     1     -46.871 -13.253 -19.808  0.00  0.00    +0.000 C 
ATOM      2  C   UNL     1     -46.429 -14.471 -20.546  0.00  0.00    +0.000 A 
ATOM      3  C   UNL     1     -46.154 -14.365 -21.914  0.00  0.00    +0.000 A 
ATOM      4  C   UNL     1     -45.738 -15.485 -22.636  0.00  0.00    +0.000 A 
ATOM      5  C   UNL     1     -45.461 -15.389 -23.997  0.00  0.00    +0.000 A 
ATOM      6  C   UNL     1     -45.046 -16.525 -24.703  0.00  0.00    +0.000 A 
ATOM      7  C   UNL     1     -44.910 -17.755 -24.024  0.00  0.00    +0.000 A 
ATOM      8  N   UNL     1     -45.191 -17.819 -22.690  0.00  0.00    +0.000 NA
ATOM      9  C   UNL     1     -45.596 -16.729 -21.987  0.00  0.00    +0.000 A 
ATOM     10  C   UNL     1     -45.872 -16.836 -20.622  0.00  0.00    +0.000 A 
ATOM     11  C   UNL     1     -46.288 -15.713 -19.897  0.00  0.00    +0.000 A 
ATOM     12  C   UNL     1     -46.572 -15.869 -18.442  0.00  0.00    +0.000 C 
ATOM     13  N   UNL     1     -44.503 -18.868 -24.706  0.00  0.00    +0.000 N 
ATOM     14  C   UNL     1     -44.232 -18.792 -26.046  0.00  0.00    +0.000 A 
ATOM     15  O   UNL     1     -43.861 -19.815 -26.686  0.00  0.00    +0.000 OA
ATOM     16  N   UNL     1     -44.360 -17.612 -26.706  0.00  0.00    +0.000 N 
ATOM     17  C   UNL     1     -44.757 -16.481 -26.070  0.00  0.00    +0.000 A 
ATOM     18  O   UNL     1     -44.862 -15.407 -26.720  0.00  0.00    +0.000 OA
ATOM     19  H   UNL     1     -44.160 -17.575 -27.669  0.00  0.00    +0.000 HD
ENDROOT
BRANCH  13  20
ATOM     20  C   UNL     1     -44.349 -20.144 -24.003  0.00  0.00    +0.000 C 
BRANCH  20  21
ATOM     21  C   UNL     1     -43.010 -20.197 -23.276  0.00  0.00    +0.000 C 
BRANCH  21  22
ATOM     22  O   UNL     1     -43.230 -20.127 -21.898  0.00  0.00    +0.000 OA
ATOM     23  H   UNL     1     -44.017 -20.645 -21.670  0.00  0.00    +0.000 HD
ENDBRANCH  21  22
BRANCH  21  24
ATOM     24  C   UNL     1     -42.257 -21.487 -23.623  0.00  0.00    +0.000 C 
BRANCH  24  25
ATOM     25  O   UNL     1     -42.180 -22.320 -22.504  0.00  0.00    +0.000 OA
ATOM     26  H   UNL     1     -41.324 -22.193 -22.065  0.00  0.00    +0.000 HD
ENDBRANCH  24  25
BRANCH  24  27
ATOM     27  C   UNL     1     -40.847 -21.245 -24.179  0.00  0.00    +0.000 C 
BRANCH  27  28
ATOM     28  O   UNL     1     -40.454 -22.308 -24.991  0.00  0.00    +0.000 OA
ATOM     29  H   UNL     1     -40.521 -22.045 -25.923  0.00  0.00    +0.000 HD
ENDBRANCH  27  28
BRANCH  27  30
ATOM     30  C   UNL     1     -40.718 -19.934 -24.947  0.00  0.00    +0.000 C 
BRANCH  30  31
ATOM     31  O   UNL     1     -40.918 -20.153 -26.310  0.00  0.00    +0.000 OA
ATOM     32  H   UNL     1     -41.586 -20.845 -26.433  0.00  0.00    +0.000 HD
ENDBRANCH  30  31
ENDBRANCH  27  30
ENDBRANCH  24  27
ENDBRANCH  21  24
ENDBRANCH  20  21
ENDBRANCH  13  20
TORSDOF 9
ENDMDL
