MODEL 1
REMARK VINA RESULT:      -7.0      0.000      0.000
REMARK  Name = ZINC000033168752 ZINC33168752 PubChem-92884272
REMARK  7 active torsions:
REMARK  status: ('A' for Active; 'I' for Inactive)
REMARK    1  A    between atoms: C_5  and  C_21
REMARK    2  A    between atoms: C_7  and  S_13
REMARK    3  A    between atoms: S_13  and  C_18
REMARK    4  A    between atoms: N_23  and  C_25
REMARK    5  A    between atoms: C_25  and  C_26
REMARK    6  A    between atoms: C_28  and  O_34
REMARK    7  A    between atoms: C_31  and  O_32
REMARK                            x       y       z     vdW  Elec       q    Type
REMARK                         _______ _______ _______ _____ _____    ______ ____
ROOT
ATOM      1  N   UNL     1     -45.663  -6.659 -29.520  0.00  0.00    +0.000 N 
ATOM      2  C   UNL     1     -45.627  -6.420 -28.072  0.00  0.00    +0.000 C 
ATOM      3  C   UNL     1     -46.817  -5.600 -27.595  0.00  0.00    +0.000 C 
ATOM      4  C   UNL     1     -46.966  -4.382 -28.488  0.00  0.00    +0.000 C 
ATOM      5  C   UNL     1     -47.281  -4.786 -29.931  0.00  0.00    +0.000 C 
ATOM      6  C   UNL     1     -46.789  -6.188 -30.331  0.00  0.00    +0.000 C 
ATOM      7  C   UNL     1     -45.357  -8.980 -30.384  0.00  0.00    +0.000 A 
ATOM      8  C   UNL     1     -44.836  -7.715 -30.035  0.00  0.00    +0.000 A 
ATOM      9  N   UNL     1     -43.511  -7.478 -30.242  0.00  0.00    +0.000 NA
ATOM     10  C   UNL     1     -42.685  -8.423 -30.761  0.00  0.00    +0.000 A 
ATOM     11  C   UNL     1     -43.205  -9.666 -31.111  0.00  0.00    +0.000 A 
ATOM     12  N   UNL     1     -44.525  -9.912 -30.923  0.00  0.00    +0.000 NA
ENDROOT
BRANCH   5  13
ATOM     13  C   UNL     1     -46.793  -3.748 -30.885  0.00  0.00    +0.000 C 
ATOM     14  O   UNL     1     -46.197  -2.732 -30.436  0.00  0.00    +0.000 OA
ATOM     15  N   UNL     1     -46.979  -3.916 -32.290  0.00  0.00    +0.000 N 
ATOM     16  H   UNL     1     -47.391  -4.747 -32.620  0.00  0.00    +0.000 HD
BRANCH  15  17
ATOM     17  C   UNL     1     -46.579  -2.901 -33.250  0.00  0.00    +0.000 C 
BRANCH  17  18
ATOM     18  C   UNL     1     -45.096  -2.911 -33.405  0.00  0.00    +0.000 A 
ATOM     19  C   UNL     1     -44.383  -1.719 -33.250  0.00  0.00    +0.000 A 
ATOM     20  C   UNL     1     -42.990  -1.691 -33.419  0.00  0.00    +0.000 A 
ATOM     21  C   UNL     1     -42.317  -2.871 -33.745  0.00  0.00    +0.000 A 
ATOM     22  C   UNL     1     -43.024  -4.064 -33.905  0.00  0.00    +0.000 A 
ATOM     23  C   UNL     1     -44.418  -4.094 -33.740  0.00  0.00    +0.000 A 
BRANCH  20  24
ATOM     24  O   UNL     1     -42.258  -0.510 -33.271  0.00  0.00    +0.000 OA
ATOM     25  C   UNL     1     -41.293  -0.327 -32.243  0.00  0.00    +0.000 C 
ENDBRANCH  20  24
BRANCH  23  26
ATOM     26  O   UNL     1     -45.141  -5.284 -33.895  0.00  0.00    +0.000 OA
ATOM     27  C   UNL     1     -44.605  -6.558 -33.571  0.00  0.00    +0.000 C 
ENDBRANCH  23  26
ENDBRANCH  17  18
ENDBRANCH  15  17
ENDBRANCH   5  13
BRANCH   7  28
ATOM     28  S   UNL     1     -47.099  -9.381 -30.231  0.00  0.00    +0.000 S 
BRANCH  28  33
ATOM     29  C   UNL     1     -46.077 -13.726 -26.110  0.00  0.00    +0.000 C 
ATOM     30  C   UNL     1     -46.336 -12.666 -27.117  0.00  0.00    +0.000 A 
ATOM     31  C   UNL     1     -46.764 -13.010 -28.402  0.00  0.00    +0.000 A 
ATOM     32  C   UNL     1     -47.003 -12.011 -29.350  0.00  0.00    +0.000 A 
ATOM     33  C   UNL     1     -46.819 -10.666 -29.014  0.00  0.00    +0.000 A 
ATOM     34  C   UNL     1     -46.383 -10.322 -27.730  0.00  0.00    +0.000 A 
ATOM     35  C   UNL     1     -46.144 -11.322 -26.782  0.00  0.00    +0.000 A 
ENDBRANCH  28  33
ENDBRANCH   7  28
TORSDOF 7
ENDMDL
MODEL 2
REMARK VINA RESULT:      -6.7      5.150      9.547
REMARK  Name = ZINC000033168752 ZINC33168752 PubChem-92884272
REMARK  7 active torsions:
REMARK  status: ('A' for Active; 'I' for Inactive)
REMARK    1  A    between atoms: C_5  and  C_21
REMARK    2  A    between atoms: C_7  and  S_13
REMARK    3  A    between atoms: S_13  and  C_18
REMARK    4  A    between atoms: N_23  and  C_25
REMARK    5  A    between atoms: C_25  and  C_26
REMARK    6  A    between atoms: C_28  and  O_34
REMARK    7  A    between atoms: C_31  and  O_32
REMARK                            x       y       z     vdW  Elec       q    Type
REMARK                         _______ _______ _______ _____ _____    ______ ____
ROOT
ATOM      1  N   UNL     1     -45.129  -6.300 -33.610  0.00  0.00    +0.000 N 
ATOM      2  C   UNL     1     -43.693  -6.337 -33.904  0.00  0.00    +0.000 C 
ATOM      3  C   UNL     1     -43.415  -6.512 -35.390  0.00  0.00    +0.000 C 
ATOM      4  C   UNL     1     -44.253  -7.663 -35.916  0.00  0.00    +0.000 C 
ATOM      5  C   UNL     1     -45.749  -7.359 -35.798  0.00  0.00    +0.000 C 
ATOM      6  C   UNL     1     -46.119  -6.358 -34.689  0.00  0.00    +0.000 C 
ATOM      7  C   UNL     1     -46.040  -4.456 -32.195  0.00  0.00    +0.000 A 
ATOM      8  C   UNL     1     -45.529  -5.765 -32.337  0.00  0.00    +0.000 A 
ATOM      9  N   UNL     1     -45.459  -6.559 -31.234  0.00  0.00    +0.000 NA
ATOM     10  C   UNL     1     -45.856  -6.125 -30.010  0.00  0.00    +0.000 A 
ATOM     11  C   UNL     1     -46.366  -4.837 -29.875  0.00  0.00    +0.000 A 
ATOM     12  N   UNL     1     -46.454  -4.039 -30.968  0.00  0.00    +0.000 NA
ENDROOT
BRANCH   5  13
ATOM     13  C   UNL     1     -46.532  -8.622 -35.671  0.00  0.00    +0.000 C 
ATOM     14  O   UNL     1     -46.752  -9.097 -34.524  0.00  0.00    +0.000 OA
ATOM     15  N   UNL     1     -47.044  -9.273 -36.834  0.00  0.00    +0.000 N 
ATOM     16  H   UNL     1     -46.912  -8.850 -37.713  0.00  0.00    +0.000 HD
BRANCH  15  17
ATOM     17  C   UNL     1     -47.755 -10.539 -36.762  0.00  0.00    +0.000 C 
BRANCH  17  18
ATOM     18  C   UNL     1     -47.053 -11.557 -37.595  0.00  0.00    +0.000 A 
ATOM     19  C   UNL     1     -47.589 -11.914 -38.837  0.00  0.00    +0.000 A 
ATOM     20  C   UNL     1     -46.968 -12.890 -39.630  0.00  0.00    +0.000 A 
ATOM     21  C   UNL     1     -45.804 -13.508 -39.168  0.00  0.00    +0.000 A 
ATOM     22  C   UNL     1     -45.266 -13.159 -37.927  0.00  0.00    +0.000 A 
ATOM     23  C   UNL     1     -45.887 -12.184 -37.130  0.00  0.00    +0.000 A 
BRANCH  20  24
ATOM     24  O   UNL     1     -47.488 -13.264 -40.872  0.00  0.00    +0.000 OA
ATOM     25  C   UNL     1     -47.144 -12.598 -42.081  0.00  0.00    +0.000 C 
ENDBRANCH  20  24
BRANCH  23  26
ATOM     26  O   UNL     1     -45.358 -11.822 -35.884  0.00  0.00    +0.000 OA
ATOM     27  C   UNL     1     -44.181 -12.409 -35.348  0.00  0.00    +0.000 C 
ENDBRANCH  23  26
ENDBRANCH  17  18
ENDBRANCH  15  17
ENDBRANCH   5  13
BRANCH   7  28
ATOM     28  S   UNL     1     -46.252  -3.346 -33.588  0.00  0.00    +0.000 S 
BRANCH  28  33
ATOM     29  C   UNL     1     -41.204  -0.169 -32.434  0.00  0.00    +0.000 C 
ATOM     30  C   UNL     1     -42.435  -0.953 -32.712  0.00  0.00    +0.000 A 
ATOM     31  C   UNL     1     -42.363  -2.125 -33.470  0.00  0.00    +0.000 A 
ATOM     32  C   UNL     1     -43.524  -2.858 -33.733  0.00  0.00    +0.000 A 
ATOM     33  C   UNL     1     -44.757  -2.425 -33.235  0.00  0.00    +0.000 A 
ATOM     34  C   UNL     1     -44.828  -1.248 -32.482  0.00  0.00    +0.000 A 
ATOM     35  C   UNL     1     -43.668  -0.514 -32.218  0.00  0.00    +0.000 A 
ENDBRANCH  28  33
ENDBRANCH   7  28
TORSDOF 7
ENDMDL
MODEL 3
REMARK VINA RESULT:      -6.6      3.295      9.578
REMARK  Name = ZINC000033168752 ZINC33168752 PubChem-92884272
REMARK  7 active torsions:
REMARK  status: ('A' for Active; 'I' for Inactive)
REMARK    1  A    between atoms: C_5  and  C_21
REMARK    2  A    between atoms: C_7  and  S_13
REMARK    3  A    between atoms: S_13  and  C_18
REMARK    4  A    between atoms: N_23  and  C_25
REMARK    5  A    between atoms: C_25  and  C_26
REMARK    6  A    between atoms: C_28  and  O_34
REMARK    7  A    between atoms: C_31  and  O_32
REMARK                            x       y       z     vdW  Elec       q    Type
REMARK                         _______ _______ _______ _____ _____    ______ ____
ROOT
ATOM      1  N   UNL     1     -45.034  -7.459 -30.999  0.00  0.00    +0.000 N 
ATOM      2  C   UNL     1     -43.653  -7.354 -30.515  0.00  0.00    +0.000 C 
ATOM      3  C   UNL     1     -42.713  -8.301 -31.248  0.00  0.00    +0.000 C 
ATOM      4  C   UNL     1     -43.329  -9.688 -31.269  0.00  0.00    +0.000 C 
ATOM      5  C   UNL     1     -44.642  -9.699 -32.057  0.00  0.00    +0.000 C 
ATOM      6  C   UNL     1     -45.374  -8.347 -32.114  0.00  0.00    +0.000 C 
ATOM      7  C   UNL     1     -46.275  -5.383 -31.615  0.00  0.00    +0.000 A 
ATOM      8  C   UNL     1     -45.930  -6.382 -30.679  0.00  0.00    +0.000 A 
ATOM      9  N   UNL     1     -46.506  -6.344 -29.445  0.00  0.00    +0.000 NA
ATOM     10  C   UNL     1     -47.388  -5.373 -29.094  0.00  0.00    +0.000 A 
ATOM     11  C   UNL     1     -47.732  -4.395 -30.023  0.00  0.00    +0.000 A 
ATOM     12  N   UNL     1     -47.176  -4.428 -31.260  0.00  0.00    +0.000 NA
ENDROOT
BRANCH   5  13
ATOM     13  C   UNL     1     -45.541 -10.781 -31.560  0.00  0.00    +0.000 C 
ATOM     14  O   UNL     1     -45.888 -11.703 -32.346  0.00  0.00    +0.000 OA
ATOM     15  N   UNL     1     -45.985 -10.783 -30.203  0.00  0.00    +0.000 N 
ATOM     16  H   UNL     1     -45.651 -10.086 -29.593  0.00  0.00    +0.000 HD
BRANCH  15  17
ATOM     17  C   UNL     1     -46.913 -11.778 -29.694  0.00  0.00    +0.000 C 
BRANCH  17  18
ATOM     18  C   UNL     1     -46.198 -12.711 -28.777  0.00  0.00    +0.000 A 
ATOM     19  C   UNL     1     -45.262 -13.607 -29.304  0.00  0.00    +0.000 A 
ATOM     20  C   UNL     1     -44.594 -14.516 -28.470  0.00  0.00    +0.000 A 
ATOM     21  C   UNL     1     -44.873 -14.521 -27.102  0.00  0.00    +0.000 A 
ATOM     22  C   UNL     1     -45.809 -13.632 -26.570  0.00  0.00    +0.000 A 
ATOM     23  C   UNL     1     -46.480 -12.722 -27.402  0.00  0.00    +0.000 A 
BRANCH  20  24
ATOM     24  O   UNL     1     -43.658 -15.422 -28.976  0.00  0.00    +0.000 OA
ATOM     25  C   UNL     1     -42.555 -15.894 -28.213  0.00  0.00    +0.000 C 
ENDBRANCH  20  24
BRANCH  23  26
ATOM     26  O   UNL     1     -47.420 -11.823 -26.882  0.00  0.00    +0.000 OA
ATOM     27  C   UNL     1     -47.060 -10.564 -26.333  0.00  0.00    +0.000 C 
ENDBRANCH  23  26
ENDBRANCH  17  18
ENDBRANCH  15  17
ENDBRANCH   5  13
BRANCH   7  28
ATOM     28  S   UNL     1     -45.642  -5.374 -33.293  0.00  0.00    +0.000 S 
BRANCH  28  33
ATOM     29  C   UNL     1     -42.144  -0.479 -32.454  0.00  0.00    +0.000 C 
ATOM     30  C   UNL     1     -43.000  -1.676 -32.650  0.00  0.00    +0.000 A 
ATOM     31  C   UNL     1     -42.592  -2.918 -32.157  0.00  0.00    +0.000 A 
ATOM     32  C   UNL     1     -43.397  -4.045 -32.346  0.00  0.00    +0.000 A 
ATOM     33  C   UNL     1     -44.615  -3.931 -33.025  0.00  0.00    +0.000 A 
ATOM     34  C   UNL     1     -45.020  -2.689 -33.525  0.00  0.00    +0.000 A 
ATOM     35  C   UNL     1     -44.214  -1.562 -33.335  0.00  0.00    +0.000 A 
ENDBRANCH  28  33
ENDBRANCH   7  28
TORSDOF 7
ENDMDL
