MODEL 1
REMARK VINA RESULT:      -6.6      0.000      0.000
REMARK  Name = ZINC000032740599 ZINC32740599 CSC026941728 MCULE-1168912559 MolPort-005-697-480 PubChem-39966225
REMARK  4 active torsions:
REMARK  status: ('A' for Active; 'I' for Inactive)
REMARK    1  A    between atoms: N_1  and  C_22
REMARK    2  A    between atoms: C_2  and  C_5
REMARK    3  A    between atoms: C_17  and  S_24
REMARK    4  A    between atoms: S_24  and  N_28
REMARK                            x       y       z     vdW  Elec       q    Type
REMARK                         _______ _______ _______ _____ _____    ______ ____
ROOT
ATOM      1  N   UNL     1     -43.997 -18.679 -26.324  0.00  0.00    +0.000 N 
ATOM      2  C   UNL     1     -44.731 -19.468 -25.375  0.00  0.00    +0.000 C 
ATOM      3  O   UNL     1     -45.507 -20.362 -25.807  0.00  0.00    +0.000 OA
ATOM      4  H   UNL     1     -43.697 -19.133 -27.146  0.00  0.00    +0.000 HD
ENDROOT
BRANCH   2   5
ATOM      5  C   UNL     1     -44.566 -19.297 -23.917  0.00  0.00    +0.000 A 
ATOM      6  C   UNL     1     -45.435 -18.469 -23.189  0.00  0.00    +0.000 A 
ATOM      7  C   UNL     1     -45.268 -18.298 -21.811  0.00  0.00    +0.000 A 
ATOM      8  C   UNL     1     -44.224 -18.951 -21.153  0.00  0.00    +0.000 A 
ATOM      9  N   UNL     1     -44.049 -18.799 -19.815  0.00  0.00    +0.000 NA
ATOM     10  C   UNL     1     -43.034 -19.426 -19.161  0.00  0.00    +0.000 A 
ATOM     11  C   UNL     1     -42.886 -19.225 -17.691  0.00  0.00    +0.000 C 
ATOM     12  C   UNL     1     -42.149 -20.245 -19.885  0.00  0.00    +0.000 A 
ATOM     13  C   UNL     1     -41.019 -20.954 -19.218  0.00  0.00    +0.000 C 
ATOM     14  N   UNL     1     -42.325 -20.397 -21.226  0.00  0.00    +0.000 NA
ATOM     15  C   UNL     1     -43.340 -19.772 -21.877  0.00  0.00    +0.000 A 
ATOM     16  C   UNL     1     -43.509 -19.939 -23.253  0.00  0.00    +0.000 A 
ENDBRANCH   2   5
BRANCH   1  22
ATOM     17  C   UNL     1     -44.258 -14.940 -26.383  0.00  0.00    +0.000 A 
ATOM     18  C   UNL     1     -42.975 -14.578 -25.967  0.00  0.00    +0.000 A 
ATOM     19  C   UNL     1     -42.033 -15.564 -25.665  0.00  0.00    +0.000 A 
ATOM     20  C   UNL     1     -42.368 -16.918 -25.775  0.00  0.00    +0.000 A 
ATOM     21  C   UNL     1     -41.337 -17.943 -25.448  0.00  0.00    +0.000 C 
ATOM     22  C   UNL     1     -43.661 -17.291 -26.183  0.00  0.00    +0.000 A 
ATOM     23  C   UNL     1     -44.593 -16.292 -26.501  0.00  0.00    +0.000 A 
BRANCH  17  24
ATOM     24  S   UNL     1     -45.444 -13.704 -26.769  0.00  0.00    +0.000 S 
ATOM     25  O   UNL     1     -46.626 -13.839 -25.847  0.00  0.00    +0.000 OA
ATOM     26  O   UNL     1     -44.823 -12.350 -26.562  0.00  0.00    +0.000 OA
BRANCH  24  28
ATOM     27  C   UNL     1     -46.787 -12.730 -28.747  0.00  0.00    +0.000 C 
ATOM     28  N   UNL     1     -45.948 -13.870 -28.421  0.00  0.00    +0.000 NA
ATOM     29  C   UNL     1     -44.763 -13.767 -29.257  0.00  0.00    +0.000 C 
ENDBRANCH  24  28
ENDBRANCH  17  24
ENDBRANCH   1  22
TORSDOF 4
ENDMDL
MODEL 2
REMARK VINA RESULT:      -6.4      3.404      7.520
REMARK  Name = ZINC000032740599 ZINC32740599 CSC026941728 MCULE-1168912559 MolPort-005-697-480 PubChem-39966225
REMARK  4 active torsions:
REMARK  status: ('A' for Active; 'I' for Inactive)
REMARK    1  A    between atoms: N_1  and  C_22
REMARK    2  A    between atoms: C_2  and  C_5
REMARK    3  A    between atoms: C_17  and  S_24
REMARK    4  A    between atoms: S_24  and  N_28
REMARK                            x       y       z     vdW  Elec       q    Type
REMARK                         _______ _______ _______ _____ _____    ______ ____
ROOT
ATOM      1  N   UNL     1     -45.109 -15.975 -21.574  0.00  0.00    +0.000 N 
ATOM      2  C   UNL     1     -45.657 -15.940 -22.901  0.00  0.00    +0.000 C 
ATOM      3  O   UNL     1     -46.477 -15.029 -23.190  0.00  0.00    +0.000 OA
ATOM      4  H   UNL     1     -44.944 -15.108 -21.136  0.00  0.00    +0.000 HD
ENDROOT
BRANCH   2   5
ATOM      5  C   UNL     1     -45.251 -16.905 -23.944  0.00  0.00    +0.000 A 
ATOM      6  C   UNL     1     -45.974 -18.092 -24.143  0.00  0.00    +0.000 A 
ATOM      7  C   UNL     1     -45.580 -19.010 -25.122  0.00  0.00    +0.000 A 
ATOM      8  C   UNL     1     -44.453 -18.750 -25.903  0.00  0.00    +0.000 A 
ATOM      9  N   UNL     1     -44.057 -19.628 -26.859  0.00  0.00    +0.000 NA
ATOM     10  C   UNL     1     -42.959 -19.389 -27.626  0.00  0.00    +0.000 A 
ATOM     11  C   UNL     1     -42.568 -20.388 -28.663  0.00  0.00    +0.000 C 
ATOM     12  C   UNL     1     -42.219 -18.210 -27.422  0.00  0.00    +0.000 A 
ATOM     13  C   UNL     1     -41.006 -17.900 -28.234  0.00  0.00    +0.000 C 
ATOM     14  N   UNL     1     -42.616 -17.331 -26.464  0.00  0.00    +0.000 NA
ATOM     15  C   UNL     1     -43.714 -17.569 -25.700  0.00  0.00    +0.000 A 
ATOM     16  C   UNL     1     -44.110 -16.655 -24.722  0.00  0.00    +0.000 A 
ENDBRANCH   2   5
BRANCH   1  22
ATOM     17  C   UNL     1     -43.415 -19.147 -20.515  0.00  0.00    +0.000 A 
ATOM     18  C   UNL     1     -44.187 -19.503 -19.408  0.00  0.00    +0.000 A 
ATOM     19  C   UNL     1     -45.258 -18.697 -19.012  0.00  0.00    +0.000 A 
ATOM     20  C   UNL     1     -45.561 -17.529 -19.720  0.00  0.00    +0.000 A 
ATOM     21  C   UNL     1     -46.711 -16.695 -19.273  0.00  0.00    +0.000 C 
ATOM     22  C   UNL     1     -44.781 -17.158 -20.830  0.00  0.00    +0.000 A 
ATOM     23  C   UNL     1     -43.720 -17.984 -21.229  0.00  0.00    +0.000 A 
BRANCH  17  24
ATOM     24  S   UNL     1     -42.073 -20.160 -21.020  0.00  0.00    +0.000 S 
ATOM     25  O   UNL     1     -40.822 -19.326 -21.108  0.00  0.00    +0.000 OA
ATOM     26  O   UNL     1     -41.862 -21.238 -19.992  0.00  0.00    +0.000 OA
BRANCH  24  28
ATOM     27  C   UNL     1     -41.869 -20.022 -23.590  0.00  0.00    +0.000 C 
ATOM     28  N   UNL     1     -42.426 -20.880 -22.558  0.00  0.00    +0.000 NA
ATOM     29  C   UNL     1     -41.707 -22.141 -22.631  0.00  0.00    +0.000 C 
ENDBRANCH  24  28
ENDBRANCH  17  24
ENDBRANCH   1  22
TORSDOF 4
ENDMDL
MODEL 3
REMARK VINA RESULT:      -6.3      1.558      2.376
REMARK  Name = ZINC000032740599 ZINC32740599 CSC026941728 MCULE-1168912559 MolPort-005-697-480 PubChem-39966225
REMARK  4 active torsions:
REMARK  status: ('A' for Active; 'I' for Inactive)
REMARK    1  A    between atoms: N_1  and  C_22
REMARK    2  A    between atoms: C_2  and  C_5
REMARK    3  A    between atoms: C_17  and  S_24
REMARK    4  A    between atoms: S_24  and  N_28
REMARK                            x       y       z     vdW  Elec       q    Type
REMARK                         _______ _______ _______ _____ _____    ______ ____
ROOT
ATOM      1  N   UNL     1     -43.573 -17.590 -26.857  0.00  0.00    +0.000 N 
ATOM      2  C   UNL     1     -44.152 -18.738 -26.218  0.00  0.00    +0.000 C 
ATOM      3  O   UNL     1     -44.785 -19.566 -26.925  0.00  0.00    +0.000 OA
ATOM      4  H   UNL     1     -43.222 -17.716 -27.769  0.00  0.00    +0.000 HD
ENDROOT
BRANCH   2   5
ATOM      5  C   UNL     1     -43.985 -19.000 -24.773  0.00  0.00    +0.000 A 
ATOM      6  C   UNL     1     -42.933 -19.805 -24.307  0.00  0.00    +0.000 A 
ATOM      7  C   UNL     1     -42.784 -20.062 -22.941  0.00  0.00    +0.000 A 
ATOM      8  C   UNL     1     -43.693 -19.520 -22.030  0.00  0.00    +0.000 A 
ATOM      9  N   UNL     1     -43.563 -19.757 -20.700  0.00  0.00    +0.000 NA
ATOM     10  C   UNL     1     -44.443 -19.238 -19.802  0.00  0.00    +0.000 A 
ATOM     11  C   UNL     1     -44.254 -19.529 -18.351  0.00  0.00    +0.000 C 
ATOM     12  C   UNL     1     -45.509 -18.443 -20.261  0.00  0.00    +0.000 A 
ATOM     13  C   UNL     1     -46.503 -17.851 -19.319  0.00  0.00    +0.000 C 
ATOM     14  N   UNL     1     -45.639 -18.206 -21.594  0.00  0.00    +0.000 NA
ATOM     15  C   UNL     1     -44.759 -18.723 -22.490  0.00  0.00    +0.000 A 
ATOM     16  C   UNL     1     -44.904 -18.469 -23.855  0.00  0.00    +0.000 A 
ENDBRANCH   2   5
BRANCH   1  22
ATOM     17  C   UNL     1     -44.388 -14.070 -25.859  0.00  0.00    +0.000 A 
ATOM     18  C   UNL     1     -43.202 -13.691 -25.227  0.00  0.00    +0.000 A 
ATOM     19  C   UNL     1     -42.142 -14.596 -25.129  0.00  0.00    +0.000 A 
ATOM     20  C   UNL     1     -42.263 -15.885 -25.659  0.00  0.00    +0.000 A 
ATOM     21  C   UNL     1     -41.112 -16.823 -25.539  0.00  0.00    +0.000 C 
ATOM     22  C   UNL     1     -43.458 -16.277 -26.287  0.00  0.00    +0.000 A 
ATOM     23  C   UNL     1     -44.509 -15.354 -26.396  0.00  0.00    +0.000 A 
BRANCH  17  24
ATOM     24  S   UNL     1     -45.721 -12.934 -25.991  0.00  0.00    +0.000 S 
ATOM     25  O   UNL     1     -46.898 -13.615 -26.636  0.00  0.00    +0.000 OA
ATOM     26  O   UNL     1     -46.120 -12.487 -24.611  0.00  0.00    +0.000 OA
BRANCH  24  28
ATOM     27  C   UNL     1     -44.949 -12.021 -28.279  0.00  0.00    +0.000 C 
ATOM     28  N   UNL     1     -45.231 -11.560 -26.930  0.00  0.00    +0.000 NA
ATOM     29  C   UNL     1     -46.369 -10.662 -27.026  0.00  0.00    +0.000 C 
ENDBRANCH  24  28
ENDBRANCH  17  24
ENDBRANCH   1  22
TORSDOF 4
ENDMDL
