MODEL 1
REMARK VINA RESULT:      -7.4      0.000      0.000
REMARK  Name = ZINC000014495283
REMARK  4 active torsions:
REMARK  status: ('A' for Active; 'I' for Inactive)
REMARK    1  A    between atoms: C_1  and  C_14
REMARK    2  A    between atoms: C_9  and  S_25
REMARK    3  A    between atoms: N_13  and  C_24
REMARK    4  A    between atoms: S_25  and  N_28
REMARK                            x       y       z     vdW  Elec       q    Type
REMARK                         _______ _______ _______ _____ _____    ______ ____
ROOT
ATOM      1  C   UNL     1     -45.140  -7.150 -26.365  0.00  0.00    +0.000 A 
ATOM      2  C   UNL     1     -44.377  -7.376 -25.212  0.00  0.00    +0.000 A 
ATOM      3  C   UNL     1     -43.000  -7.162 -25.226  0.00  0.00    +0.000 A 
ATOM      4  O   UNL     1     -42.322  -7.364 -24.186  0.00  0.00    +0.000 OA
ATOM      5  N   UNL     1     -42.386  -6.739 -26.362  0.00  0.00    +0.000 N 
ATOM      6  C   UNL     1     -43.083  -6.511 -27.506  0.00  0.00    +0.000 A 
ATOM      7  C   UNL     1     -42.411  -6.070 -28.649  0.00  0.00    +0.000 A 
ATOM      8  C   UNL     1     -43.120  -5.822 -29.827  0.00  0.00    +0.000 A 
ATOM      9  C   UNL     1     -44.505  -6.011 -29.867  0.00  0.00    +0.000 A 
ATOM     10  C   UNL     1     -45.182  -6.450 -28.726  0.00  0.00    +0.000 A 
ATOM     11  C   UNL     1     -44.484  -6.713 -27.537  0.00  0.00    +0.000 A 
ATOM     12  H   UNL     1     -41.412  -6.594 -26.357  0.00  0.00    +0.000 HD
ENDROOT
BRANCH   1  14
ATOM     13  N   UNL     1     -47.503  -6.530 -25.638  0.00  0.00    +0.000 N 
ATOM     14  C   UNL     1     -46.599  -7.414 -26.315  0.00  0.00    +0.000 C 
ATOM     15  O   UNL     1     -47.056  -8.476 -26.815  0.00  0.00    +0.000 OA
ATOM     16  H   UNL     1     -48.290  -6.939 -25.210  0.00  0.00    +0.000 HD
BRANCH  13  24
ATOM     17  C   UNL     1     -47.200  -5.366 -23.031  0.00  0.00    +0.000 C 
ATOM     18  C   UNL     1     -47.241  -4.510 -24.257  0.00  0.00    +0.000 A 
ATOM     19  C   UNL     1     -47.141  -3.109 -24.146  0.00  0.00    +0.000 A 
ATOM     20 CL   UNL     1     -46.963  -2.317 -22.587  0.00  0.00    +0.000 Cl
ATOM     21  C   UNL     1     -47.185  -2.314 -25.294  0.00  0.00    +0.000 A 
ATOM     22  C   UNL     1     -47.331  -2.901 -26.552  0.00  0.00    +0.000 A 
ATOM     23  C   UNL     1     -47.428  -4.287 -26.666  0.00  0.00    +0.000 A 
ATOM     24  C   UNL     1     -47.370  -5.104 -25.526  0.00  0.00    +0.000 A 
ENDBRANCH  13  24
ENDBRANCH   1  14
BRANCH   9  25
ATOM     25  S   UNL     1     -45.401  -5.697 -31.343  0.00  0.00    +0.000 S 
ATOM     26  O   UNL     1     -46.501  -6.712 -31.489  0.00  0.00    +0.000 OA
ATOM     27  O   UNL     1     -44.466  -5.818 -32.513  0.00  0.00    +0.000 OA
BRANCH  25  28
ATOM     28  N   UNL     1     -46.068  -4.088 -31.290  0.00  0.00    +0.000 NA
ATOM     29  C   UNL     1     -47.234  -3.988 -32.182  0.00  0.00    +0.000 C 
ATOM     30  C   UNL     1     -46.816  -3.798 -33.645  0.00  0.00    +0.000 C 
ATOM     31  O   UNL     1     -46.002  -2.662 -33.763  0.00  0.00    +0.000 OA
ATOM     32  C   UNL     1     -44.797  -2.981 -33.120  0.00  0.00    +0.000 C 
ATOM     33  C   UNL     1     -45.030  -3.095 -31.609  0.00  0.00    +0.000 C 
ENDBRANCH  25  28
ENDBRANCH   9  25
TORSDOF 4
ENDMDL
MODEL 2
REMARK VINA RESULT:      -7.0      4.282      7.904
REMARK  Name = ZINC000014495283
REMARK  4 active torsions:
REMARK  status: ('A' for Active; 'I' for Inactive)
REMARK    1  A    between atoms: C_1  and  C_14
REMARK    2  A    between atoms: C_9  and  S_25
REMARK    3  A    between atoms: N_13  and  C_24
REMARK    4  A    between atoms: S_25  and  N_28
REMARK                            x       y       z     vdW  Elec       q    Type
REMARK                         _______ _______ _______ _____ _____    ______ ____
ROOT
ATOM      1  C   UNL     1     -46.689  -5.026 -31.985  0.00  0.00    +0.000 A 
ATOM      2  C   UNL     1     -46.937  -4.628 -33.305  0.00  0.00    +0.000 A 
ATOM      3  C   UNL     1     -46.930  -5.566 -34.336  0.00  0.00    +0.000 A 
ATOM      4  O   UNL     1     -47.157  -5.201 -35.518  0.00  0.00    +0.000 OA
ATOM      5  N   UNL     1     -46.677  -6.874 -34.068  0.00  0.00    +0.000 N 
ATOM      6  C   UNL     1     -46.427  -7.307 -32.805  0.00  0.00    +0.000 A 
ATOM      7  C   UNL     1     -46.178  -8.662 -32.574  0.00  0.00    +0.000 A 
ATOM      8  C   UNL     1     -45.930  -9.120 -31.278  0.00  0.00    +0.000 A 
ATOM      9  C   UNL     1     -45.933  -8.224 -30.204  0.00  0.00    +0.000 A 
ATOM     10  C   UNL     1     -46.183  -6.867 -30.428  0.00  0.00    +0.000 A 
ATOM     11  C   UNL     1     -46.425  -6.389 -31.725  0.00  0.00    +0.000 A 
ATOM     12  H   UNL     1     -46.674  -7.524 -34.807  0.00  0.00    +0.000 HD
ENDROOT
BRANCH   1  14
ATOM     13  N   UNL     1     -45.521  -3.188 -30.660  0.00  0.00    +0.000 N 
ATOM     14  C   UNL     1     -46.679  -3.993 -30.920  0.00  0.00    +0.000 C 
ATOM     15  O   UNL     1     -47.684  -3.860 -30.173  0.00  0.00    +0.000 OA
ATOM     16  H   UNL     1     -45.368  -2.915 -29.726  0.00  0.00    +0.000 HD
BRANCH  13  24
ATOM     17  C   UNL     1     -43.122  -4.717 -31.045  0.00  0.00    +0.000 C 
ATOM     18  C   UNL     1     -43.370  -3.465 -31.824  0.00  0.00    +0.000 A 
ATOM     19  C   UNL     1     -42.417  -3.009 -32.756  0.00  0.00    +0.000 A 
ATOM     20 CL   UNL     1     -40.919  -3.882 -33.045  0.00  0.00    +0.000 Cl
ATOM     21  C   UNL     1     -42.652  -1.836 -33.476  0.00  0.00    +0.000 A 
ATOM     22  C   UNL     1     -43.826  -1.108 -33.275  0.00  0.00    +0.000 A 
ATOM     23  C   UNL     1     -44.772  -1.557 -32.355  0.00  0.00    +0.000 A 
ATOM     24  C   UNL     1     -44.562  -2.742 -31.633  0.00  0.00    +0.000 A 
ENDBRANCH  13  24
ENDBRANCH   1  14
BRANCH   9  25
ATOM     25  S   UNL     1     -45.627  -8.793 -28.573  0.00  0.00    +0.000 S 
ATOM     26  O   UNL     1     -45.408  -7.616 -27.662  0.00  0.00    +0.000 OA
ATOM     27  O   UNL     1     -44.387  -9.643 -28.580  0.00  0.00    +0.000 OA
BRANCH  25  28
ATOM     28  N   UNL     1     -46.983  -9.739 -28.021  0.00  0.00    +0.000 NA
ATOM     29  C   UNL     1     -47.438  -9.261 -26.706  0.00  0.00    +0.000 C 
ATOM     30  C   UNL     1     -46.562  -9.799 -25.569  0.00  0.00    +0.000 C 
ATOM     31  O   UNL     1     -46.542 -11.201 -25.607  0.00  0.00    +0.000 OA
ATOM     32  C   UNL     1     -45.825 -11.546 -26.762  0.00  0.00    +0.000 C 
ATOM     33  C   UNL     1     -46.635 -11.168 -28.008  0.00  0.00    +0.000 C 
ENDBRANCH  25  28
ENDBRANCH   9  25
TORSDOF 4
ENDMDL
MODEL 3
REMARK VINA RESULT:      -6.9      4.682      7.680
REMARK  Name = ZINC000014495283
REMARK  4 active torsions:
REMARK  status: ('A' for Active; 'I' for Inactive)
REMARK    1  A    between atoms: C_1  and  C_14
REMARK    2  A    between atoms: C_9  and  S_25
REMARK    3  A    between atoms: N_13  and  C_24
REMARK    4  A    between atoms: S_25  and  N_28
REMARK                            x       y       z     vdW  Elec       q    Type
REMARK                         _______ _______ _______ _____ _____    ______ ____
ROOT
ATOM      1  C   UNL     1     -46.559  -4.371 -32.159  0.00  0.00    +0.000 A 
ATOM      2  C   UNL     1     -46.654  -3.890 -30.846  0.00  0.00    +0.000 A 
ATOM      3  C   UNL     1     -46.552  -4.766 -29.767  0.00  0.00    +0.000 A 
ATOM      4  O   UNL     1     -46.634  -4.327 -28.592  0.00  0.00    +0.000 OA
ATOM      5  N   UNL     1     -46.366  -6.095 -29.982  0.00  0.00    +0.000 N 
ATOM      6  C   UNL     1     -46.272  -6.608 -31.236  0.00  0.00    +0.000 A 
ATOM      7  C   UNL     1     -46.074  -7.981 -31.410  0.00  0.00    +0.000 A 
ATOM      8  C   UNL     1     -45.965  -8.517 -32.696  0.00  0.00    +0.000 A 
ATOM      9  C   UNL     1     -46.052  -7.682 -33.814  0.00  0.00    +0.000 A 
ATOM     10  C   UNL     1     -46.248  -6.308 -33.647  0.00  0.00    +0.000 A 
ATOM     11  C   UNL     1     -46.368  -5.755 -32.363  0.00  0.00    +0.000 A 
ATOM     12  H   UNL     1     -46.297  -6.702 -29.210  0.00  0.00    +0.000 HD
ENDROOT
BRANCH   1  14
ATOM     13  N   UNL     1     -45.694  -2.424 -33.560  0.00  0.00    +0.000 N 
ATOM     14  C   UNL     1     -46.699  -3.408 -33.280  0.00  0.00    +0.000 C 
ATOM     15  O   UNL     1     -47.756  -3.400 -33.964  0.00  0.00    +0.000 OA
ATOM     16  H   UNL     1     -46.003  -1.561 -33.920  0.00  0.00    +0.000 HD
BRANCH  13  24
ATOM     17  C   UNL     1     -44.234  -0.315 -32.270  0.00  0.00    +0.000 C 
ATOM     18  C   UNL     1     -43.540  -1.549 -32.752  0.00  0.00    +0.000 A 
ATOM     19  C   UNL     1     -42.148  -1.688 -32.589  0.00  0.00    +0.000 A 
ATOM     20 CL   UNL     1     -41.179  -0.440 -31.818  0.00  0.00    +0.000 Cl
ATOM     21  C   UNL     1     -41.504  -2.840 -33.047  0.00  0.00    +0.000 A 
ATOM     22  C   UNL     1     -42.233  -3.854 -33.670  0.00  0.00    +0.000 A 
ATOM     23  C   UNL     1     -43.612  -3.721 -33.832  0.00  0.00    +0.000 A 
ATOM     24  C   UNL     1     -44.279  -2.578 -33.364  0.00  0.00    +0.000 A 
ENDBRANCH  13  24
ENDBRANCH   1  14
BRANCH   9  25
ATOM     25  S   UNL     1     -45.912  -8.349 -35.431  0.00  0.00    +0.000 S 
ATOM     26  O   UNL     1     -44.487  -8.758 -35.685  0.00  0.00    +0.000 OA
ATOM     27  O   UNL     1     -46.303  -7.294 -36.427  0.00  0.00    +0.000 OA
BRANCH  25  28
ATOM     28  N   UNL     1     -46.972  -9.724 -35.589  0.00  0.00    +0.000 NA
ATOM     29  C   UNL     1     -46.202 -10.976 -35.500  0.00  0.00    +0.000 C 
ATOM     30  C   UNL     1     -45.514 -11.316 -36.827  0.00  0.00    +0.000 C 
ATOM     31  O   UNL     1     -46.470 -11.393 -37.851  0.00  0.00    +0.000 OA
ATOM     32  C   UNL     1     -46.929 -10.082 -38.050  0.00  0.00    +0.000 C 
ATOM     33  C   UNL     1     -47.747  -9.630 -36.835  0.00  0.00    +0.000 C 
ENDBRANCH  25  28
ENDBRANCH   9  25
TORSDOF 4
ENDMDL
