MODEL 1
REMARK VINA RESULT:      -6.7      0.000      0.000
REMARK  Name = ZINC000008812094 PubChem-92346081
REMARK  7 active torsions:
REMARK  status: ('A' for Active; 'I' for Inactive)
REMARK    1  A    between atoms: C_1  and  S_27
REMARK    2  A    between atoms: C_11  and  C_13
REMARK    3  A    between atoms: N_15  and  C_17
REMARK    4  A    between atoms: C_17  and  C_18
REMARK    5  A    between atoms: C_18  and  C_19
REMARK    6  A    between atoms: C_19  and  N_20
REMARK    7  A    between atoms: S_27  and  N_36
REMARK                            x       y       z     vdW  Elec       q    Type
REMARK                         _______ _______ _______ _____ _____    ______ ____
ROOT
ATOM      1  C   UNL     1     -44.852 -15.609 -25.674  0.00  0.00    +0.000 A 
ATOM      2  C   UNL     1     -44.727 -16.997 -25.565  0.00  0.00    +0.000 A 
ATOM      3  C   UNL     1     -43.913 -17.714 -26.455  0.00  0.00    +0.000 A 
ATOM      4  C   UNL     1     -43.205 -17.008 -27.456  0.00  0.00    +0.000 A 
ATOM      5  C   UNL     1     -43.330 -15.619 -27.558  0.00  0.00    +0.000 A 
ATOM      6  C   UNL     1     -44.152 -14.922 -26.670  0.00  0.00    +0.000 A 
ATOM      7  N   UNL     1     -42.396 -17.675 -28.320  0.00  0.00    +0.000 N 
ATOM      8  C   UNL     1     -42.242 -19.023 -28.253  0.00  0.00    +0.000 A 
ATOM      9  O   UNL     1     -41.485 -19.609 -29.069  0.00  0.00    +0.000 OA
ATOM     10  C   UNL     1     -42.923 -19.759 -27.284  0.00  0.00    +0.000 A 
ATOM     11  C   UNL     1     -43.764 -19.118 -26.366  0.00  0.00    +0.000 A 
ATOM     12  H   UNL     1     -41.909 -17.169 -29.010  0.00  0.00    +0.000 HD
ENDROOT
BRANCH  11  13
ATOM     13  C   UNL     1     -44.507 -19.933 -25.369  0.00  0.00    +0.000 C 
ATOM     14  O   UNL     1     -45.754 -20.068 -25.489  0.00  0.00    +0.000 OA
ATOM     15  N   UNL     1     -43.860 -20.570 -24.260  0.00  0.00    +0.000 N 
ATOM     16  H   UNL     1     -44.414 -21.134 -23.672  0.00  0.00    +0.000 HD
BRANCH  15  17
ATOM     17  C   UNL     1     -42.447 -20.445 -23.936  0.00  0.00    +0.000 C 
BRANCH  17  18
ATOM     18  C   UNL     1     -42.249 -19.326 -22.929  0.00  0.00    +0.000 C 
BRANCH  18  19
ATOM     19  C   UNL     1     -42.403 -19.857 -21.514  0.00  0.00    +0.000 C 
BRANCH  19  20
ATOM     20  N   UNL     1     -43.732 -19.557 -21.003  0.00  0.00    +0.000 NA
ATOM     21  C   UNL     1     -43.590 -19.308 -19.574  0.00  0.00    +0.000 C 
ATOM     22  C   UNL     1     -44.845 -19.733 -18.805  0.00  0.00    +0.000 C 
ATOM     23  C   UNL     1     -46.166 -19.441 -19.524  0.00  0.00    +0.000 C 
ATOM     24  C   UNL     1     -46.199 -18.062 -20.171  0.00  0.00    +0.000 C 
ATOM     25  C   UNL     1     -45.648 -18.135 -21.591  0.00  0.00    +0.000 C 
ATOM     26  C   UNL     1     -44.130 -18.290 -21.605  0.00  0.00    +0.000 C 
ENDBRANCH  19  20
ENDBRANCH  18  19
ENDBRANCH  17  18
ENDBRANCH  15  17
ENDBRANCH  11  13
BRANCH   1  27
ATOM     27  S   UNL     1     -45.877 -14.729 -24.554  0.00  0.00    +0.000 S 
ATOM     28  O   UNL     1     -45.927 -13.285 -24.972  0.00  0.00    +0.000 OA
ATOM     29  O   UNL     1     -47.264 -15.310 -24.589  0.00  0.00    +0.000 OA
BRANCH  27  36
ATOM     30  C   UNL     1     -43.465 -13.109 -23.402  0.00  0.00    +0.000 C 
ATOM     31  C   UNL     1     -43.779 -14.527 -22.922  0.00  0.00    +0.000 C 
ATOM     32  C   UNL     1     -43.225 -14.746 -21.513  0.00  0.00    +0.000 C 
ATOM     33  C   UNL     1     -44.015 -13.934 -20.485  0.00  0.00    +0.000 C 
ATOM     34  C   UNL     1     -45.510 -14.220 -20.604  0.00  0.00    +0.000 C 
ATOM     35  C   UNL     1     -45.968 -13.978 -22.040  0.00  0.00    +0.000 C 
ATOM     36  N   UNL     1     -45.218 -14.852 -22.946  0.00  0.00    +0.000 NA
ENDBRANCH  27  36
ENDBRANCH   1  27
TORSDOF 7
ENDMDL
MODEL 2
REMARK VINA RESULT:      -6.6     10.112     13.661
REMARK  Name = ZINC000008812094 PubChem-92346081
REMARK  7 active torsions:
REMARK  status: ('A' for Active; 'I' for Inactive)
REMARK    1  A    between atoms: C_1  and  S_27
REMARK    2  A    between atoms: C_11  and  C_13
REMARK    3  A    between atoms: N_15  and  C_17
REMARK    4  A    between atoms: C_17  and  C_18
REMARK    5  A    between atoms: C_18  and  C_19
REMARK    6  A    between atoms: C_19  and  N_20
REMARK    7  A    between atoms: S_27  and  N_36
REMARK                            x       y       z     vdW  Elec       q    Type
REMARK                         _______ _______ _______ _____ _____    ______ ____
ROOT
ATOM      1  C   UNL     1     -45.295  -4.977 -30.328  0.00  0.00    +0.000 A 
ATOM      2  C   UNL     1     -44.589  -5.703 -29.365  0.00  0.00    +0.000 A 
ATOM      3  C   UNL     1     -45.167  -5.991 -28.119  0.00  0.00    +0.000 A 
ATOM      4  C   UNL     1     -46.486  -5.551 -27.858  0.00  0.00    +0.000 A 
ATOM      5  C   UNL     1     -47.191  -4.829 -28.826  0.00  0.00    +0.000 A 
ATOM      6  C   UNL     1     -46.596  -4.542 -30.057  0.00  0.00    +0.000 A 
ATOM      7  N   UNL     1     -47.077  -5.832 -26.667  0.00  0.00    +0.000 N 
ATOM      8  C   UNL     1     -46.430  -6.534 -25.701  0.00  0.00    +0.000 A 
ATOM      9  O   UNL     1     -47.007  -6.776 -24.609  0.00  0.00    +0.000 OA
ATOM     10  C   UNL     1     -45.128  -6.985 -25.915  0.00  0.00    +0.000 A 
ATOM     11  C   UNL     1     -44.478  -6.727 -27.127  0.00  0.00    +0.000 A 
ATOM     12  H   UNL     1     -47.996  -5.519 -26.501  0.00  0.00    +0.000 HD
ENDROOT
BRANCH  11  13
ATOM     13  C   UNL     1     -43.076  -7.187 -27.312  0.00  0.00    +0.000 C 
ATOM     14  O   UNL     1     -42.131  -6.478 -26.873  0.00  0.00    +0.000 OA
ATOM     15  N   UNL     1     -42.749  -8.412 -27.983  0.00  0.00    +0.000 N 
ATOM     16  H   UNL     1     -41.800  -8.671 -28.019  0.00  0.00    +0.000 HD
BRANCH  15  17
ATOM     17  C   UNL     1     -43.714  -9.298 -28.613  0.00  0.00    +0.000 C 
BRANCH  17  18
ATOM     18  C   UNL     1     -44.297 -10.242 -27.577  0.00  0.00    +0.000 C 
BRANCH  18  19
ATOM     19  C   UNL     1     -45.718 -10.626 -27.955  0.00  0.00    +0.000 C 
BRANCH  19  20
ATOM     20  N   UNL     1     -46.105  -9.977 -29.197  0.00  0.00    +0.000 NA
ATOM     21  C   UNL     1     -46.393 -11.036 -30.157  0.00  0.00    +0.000 C 
ATOM     22  C   UNL     1     -46.061 -10.600 -31.587  0.00  0.00    +0.000 C 
ATOM     23  C   UNL     1     -46.400  -9.140 -31.906  0.00  0.00    +0.000 C 
ATOM     24  C   UNL     1     -47.756  -8.711 -31.362  0.00  0.00    +0.000 C 
ATOM     25  C   UNL     1     -47.607  -8.180 -29.940  0.00  0.00    +0.000 C 
ATOM     26  C   UNL     1     -47.371  -9.303 -28.935  0.00  0.00    +0.000 C 
ENDBRANCH  19  20
ENDBRANCH  18  19
ENDBRANCH  17  18
ENDBRANCH  15  17
ENDBRANCH  11  13
BRANCH   1  27
ATOM     27  S   UNL     1     -44.555  -4.622 -31.879  0.00  0.00    +0.000 S 
ATOM     28  O   UNL     1     -43.457  -5.616 -32.133  0.00  0.00    +0.000 OA
ATOM     29  O   UNL     1     -45.594  -4.734 -32.960  0.00  0.00    +0.000 OA
BRANCH  27  36
ATOM     30  C   UNL     1     -42.793  -3.294 -34.093  0.00  0.00    +0.000 C 
ATOM     31  C   UNL     1     -42.636  -2.925 -32.616  0.00  0.00    +0.000 C 
ATOM     32  C   UNL     1     -42.043  -1.522 -32.479  0.00  0.00    +0.000 C 
ATOM     33  C   UNL     1     -43.054  -0.459 -32.914  0.00  0.00    +0.000 C 
ATOM     34  C   UNL     1     -44.377  -0.638 -32.174  0.00  0.00    +0.000 C 
ATOM     35  C   UNL     1     -44.886  -2.064 -32.366  0.00  0.00    +0.000 C 
ATOM     36  N   UNL     1     -43.894  -3.010 -31.850  0.00  0.00    +0.000 NA
ENDBRANCH  27  36
ENDBRANCH   1  27
TORSDOF 7
ENDMDL
MODEL 3
REMARK VINA RESULT:      -6.5      9.734     13.090
REMARK  Name = ZINC000008812094 PubChem-92346081
REMARK  7 active torsions:
REMARK  status: ('A' for Active; 'I' for Inactive)
REMARK    1  A    between atoms: C_1  and  S_27
REMARK    2  A    between atoms: C_11  and  C_13
REMARK    3  A    between atoms: N_15  and  C_17
REMARK    4  A    between atoms: C_17  and  C_18
REMARK    5  A    between atoms: C_18  and  C_19
REMARK    6  A    between atoms: C_19  and  N_20
REMARK    7  A    between atoms: S_27  and  N_36
REMARK                            x       y       z     vdW  Elec       q    Type
REMARK                         _______ _______ _______ _____ _____    ______ ____
ROOT
ATOM      1  C   UNL     1     -45.444  -4.865 -30.257  0.00  0.00    +0.000 A 
ATOM      2  C   UNL     1     -44.837  -5.694 -29.310  0.00  0.00    +0.000 A 
ATOM      3  C   UNL     1     -45.434  -5.909 -28.059  0.00  0.00    +0.000 A 
ATOM      4  C   UNL     1     -46.674  -5.288 -27.776  0.00  0.00    +0.000 A 
ATOM      5  C   UNL     1     -47.280  -4.462 -28.728  0.00  0.00    +0.000 A 
ATOM      6  C   UNL     1     -46.666  -4.252 -29.965  0.00  0.00    +0.000 A 
ATOM      7  N   UNL     1     -47.284  -5.493 -26.579  0.00  0.00    +0.000 N 
ATOM      8  C   UNL     1     -46.731  -6.290 -25.628  0.00  0.00    +0.000 A 
ATOM      9  O   UNL     1     -47.323  -6.458 -24.530  0.00  0.00    +0.000 OA
ATOM     10  C   UNL     1     -45.511  -6.921 -25.863  0.00  0.00    +0.000 A 
ATOM     11  C   UNL     1     -44.845  -6.746 -27.083  0.00  0.00    +0.000 A 
ATOM     12  H   UNL     1     -48.146  -5.054 -26.398  0.00  0.00    +0.000 HD
ENDROOT
BRANCH  11  13
ATOM     13  C   UNL     1     -43.526  -7.400 -27.291  0.00  0.00    +0.000 C 
ATOM     14  O   UNL     1     -42.474  -6.773 -26.996  0.00  0.00    +0.000 OA
ATOM     15  N   UNL     1     -43.399  -8.724 -27.826  0.00  0.00    +0.000 N 
ATOM     16  H   UNL     1     -42.493  -9.106 -27.886  0.00  0.00    +0.000 HD
BRANCH  15  17
ATOM     17  C   UNL     1     -44.507  -9.545 -28.288  0.00  0.00    +0.000 C 
BRANCH  17  18
ATOM     18  C   UNL     1     -44.679  -9.378 -29.787  0.00  0.00    +0.000 C 
BRANCH  18  19
ATOM     19  C   UNL     1     -45.356 -10.603 -30.380  0.00  0.00    +0.000 C 
BRANCH  19  20
ATOM     20  N   UNL     1     -45.367 -11.691 -29.415  0.00  0.00    +0.000 NA
ATOM     21  C   UNL     1     -46.707 -12.264 -29.438  0.00  0.00    +0.000 C 
ATOM     22  C   UNL     1     -47.102 -12.820 -28.067  0.00  0.00    +0.000 C 
ATOM     23  C   UNL     1     -45.967 -13.513 -27.306  0.00  0.00    +0.000 C 
ATOM     24  C   UNL     1     -45.125 -14.423 -28.191  0.00  0.00    +0.000 C 
ATOM     25  C   UNL     1     -43.982 -13.631 -28.820  0.00  0.00    +0.000 C 
ATOM     26  C   UNL     1     -44.472 -12.716 -29.938  0.00  0.00    +0.000 C 
ENDBRANCH  19  20
ENDBRANCH  18  19
ENDBRANCH  17  18
ENDBRANCH  15  17
ENDBRANCH  11  13
BRANCH   1  27
ATOM     27  S   UNL     1     -44.681  -4.604 -31.816  0.00  0.00    +0.000 S 
ATOM     28  O   UNL     1     -43.637  -5.664 -32.030  0.00  0.00    +0.000 OA
ATOM     29  O   UNL     1     -45.721  -4.697 -32.898  0.00  0.00    +0.000 OA
BRANCH  27  36
ATOM     30  C   UNL     1     -42.788  -3.475 -34.032  0.00  0.00    +0.000 C 
ATOM     31  C   UNL     1     -42.652  -3.048 -32.569  0.00  0.00    +0.000 C 
ATOM     32  C   UNL     1     -41.987  -1.673 -32.476  0.00  0.00    +0.000 C 
ATOM     33  C   UNL     1     -42.926  -0.579 -32.989  0.00  0.00    +0.000 C 
ATOM     34  C   UNL     1     -44.277  -0.653 -32.282  0.00  0.00    +0.000 C 
ATOM     35  C   UNL     1     -44.858  -2.057 -32.426  0.00  0.00    +0.000 C 
ATOM     36  N   UNL     1     -43.934  -3.031 -31.838  0.00  0.00    +0.000 NA
ENDBRANCH  27  36
ENDBRANCH   1  27
TORSDOF 7
ENDMDL
