MODEL 1
REMARK VINA RESULT:      -7.6      0.000      0.000
REMARK  Name = ZINC000064605344 ZINC64605344 ChemDiv-J046-1135 MCULE-1856858286 MolPort-010-723-805 PubChem-50813209
REMARK  7 active torsions:
REMARK  status: ('A' for Active; 'I' for Inactive)
REMARK    1  A    between atoms: N_1  and  C_22
REMARK    2  A    between atoms: C_3  and  C_8
REMARK    3  A    between atoms: C_5  and  N_15
REMARK    4  A    between atoms: C_16  and  C_19
REMARK    5  A    between atoms: C_22  and  C_24
REMARK    6  A    between atoms: N_23  and  C_28
REMARK    7  A    between atoms: C_27  and  O_35
REMARK                            x       y       z     vdW  Elec       q    Type
REMARK                         _______ _______ _______ _____ _____    ______ ____
ROOT
ATOM      1  N   UNL     1     -47.301  -6.323 -30.158  0.00  0.00    +0.000 N 
ATOM      2  N   UNL     1     -47.368  -5.888 -28.897  0.00  0.00    +0.000 NA
ATOM      3  C   UNL     1     -46.990  -4.631 -28.542  0.00  0.00    +0.000 A 
ATOM      4  C   UNL     1     -46.510  -3.770 -29.531  0.00  0.00    +0.000 A 
ATOM      5  C   UNL     1     -46.428  -4.206 -30.854  0.00  0.00    +0.000 A 
ATOM      6  C   UNL     1     -46.834  -5.512 -31.155  0.00  0.00    +0.000 A 
ATOM      7  O   UNL     1     -46.765  -5.933 -32.343  0.00  0.00    +0.000 OA
ENDROOT
BRANCH   3   8
ATOM      8  C   UNL     1     -47.082  -4.198 -27.131  0.00  0.00    +0.000 A 
ATOM      9  C   UNL     1     -46.942  -5.137 -26.097  0.00  0.00    +0.000 A 
ATOM     10  C   UNL     1     -47.030  -4.739 -24.760  0.00  0.00    +0.000 A 
ATOM     11  C   UNL     1     -47.254  -3.395 -24.445  0.00  0.00    +0.000 A 
ATOM     12  C   UNL     1     -47.345  -2.971 -23.024  0.00  0.00    +0.000 C 
ATOM     13  C   UNL     1     -47.390  -2.452 -25.466  0.00  0.00    +0.000 A 
ATOM     14  C   UNL     1     -47.305  -2.850 -26.803  0.00  0.00    +0.000 A 
ENDBRANCH   3   8
BRANCH   5  15
ATOM     15  N   UNL     1     -45.933  -3.355 -31.899  0.00  0.00    +0.000 N 
ATOM     16  C   UNL     1     -44.556  -3.101 -32.222  0.00  0.00    +0.000 C 
ATOM     17  O   UNL     1     -43.624  -3.628 -31.558  0.00  0.00    +0.000 OA
ATOM     18  H   UNL     1     -46.607  -2.899 -32.453  0.00  0.00    +0.000 HD
BRANCH  16  19
ATOM     19  C   UNL     1     -44.213  -2.197 -33.359  0.00  0.00    +0.000 C 
ATOM     20  C   UNL     1     -42.958  -2.682 -34.059  0.00  0.00    +0.000 C 
ATOM     21  C   UNL     1     -44.011  -0.776 -32.867  0.00  0.00    +0.000 C 
ENDBRANCH  16  19
ENDBRANCH   5  15
BRANCH   1  22
ATOM     22  C   UNL     1     -47.688  -7.699 -30.438  0.00  0.00    +0.000 C 
BRANCH  22  24
ATOM     23  N   UNL     1     -47.756  -9.069 -28.318  0.00  0.00    +0.000 N 
ATOM     24  C   UNL     1     -47.029  -8.613 -29.464  0.00  0.00    +0.000 C 
ATOM     25  O   UNL     1     -45.836  -8.970 -29.654  0.00  0.00    +0.000 OA
ATOM     26  H   UNL     1     -48.739  -9.025 -28.355  0.00  0.00    +0.000 HD
BRANCH  23  28
ATOM     27  C   UNL     1     -46.731 -10.925 -27.016  0.00  0.00    +0.000 A 
ATOM     28  C   UNL     1     -47.161  -9.583 -27.121  0.00  0.00    +0.000 A 
ATOM     29  C   UNL     1     -46.944  -8.703 -26.055  0.00  0.00    +0.000 A 
ATOM     30  C   UNL     1     -46.353  -9.151 -24.872  0.00  0.00    +0.000 A 
ATOM     31  C   UNL     1     -46.145  -8.208 -23.742  0.00  0.00    +0.000 C 
ATOM     32  C   UNL     1     -45.962 -10.486 -24.750  0.00  0.00    +0.000 A 
ATOM     33  C   UNL     1     -46.146 -11.366 -25.817  0.00  0.00    +0.000 A 
BRANCH  27  35
ATOM     34  C   UNL     1     -46.594 -13.184 -28.028  0.00  0.00    +0.000 C 
ATOM     35  O   UNL     1     -46.861 -11.790 -28.108  0.00  0.00    +0.000 OA
ENDBRANCH  27  35
ENDBRANCH  23  28
ENDBRANCH  22  24
ENDBRANCH   1  22
TORSDOF 7
ENDMDL
MODEL 2
REMARK VINA RESULT:      -7.3      1.736      2.501
REMARK  Name = ZINC000064605344 ZINC64605344 ChemDiv-J046-1135 MCULE-1856858286 MolPort-010-723-805 PubChem-50813209
REMARK  7 active torsions:
REMARK  status: ('A' for Active; 'I' for Inactive)
REMARK    1  A    between atoms: N_1  and  C_22
REMARK    2  A    between atoms: C_3  and  C_8
REMARK    3  A    between atoms: C_5  and  N_15
REMARK    4  A    between atoms: C_16  and  C_19
REMARK    5  A    between atoms: C_22  and  C_24
REMARK    6  A    between atoms: N_23  and  C_28
REMARK    7  A    between atoms: C_27  and  O_35
REMARK                            x       y       z     vdW  Elec       q    Type
REMARK                         _______ _______ _______ _____ _____    ______ ____
ROOT
ATOM      1  N   UNL     1     -46.828  -6.726 -28.389  0.00  0.00    +0.000 N 
ATOM      2  N   UNL     1     -46.903  -6.012 -27.263  0.00  0.00    +0.000 NA
ATOM      3  C   UNL     1     -47.089  -4.665 -27.270  0.00  0.00    +0.000 A 
ATOM      4  C   UNL     1     -47.199  -4.008 -28.497  0.00  0.00    +0.000 A 
ATOM      5  C   UNL     1     -47.120  -4.736 -29.685  0.00  0.00    +0.000 A 
ATOM      6  C   UNL     1     -46.929  -6.121 -29.611  0.00  0.00    +0.000 A 
ATOM      7  O   UNL     1     -46.848  -6.801 -30.671  0.00  0.00    +0.000 OA
ENDROOT
BRANCH   3   8
ATOM      8  C   UNL     1     -47.163  -3.918 -25.995  0.00  0.00    +0.000 A 
ATOM      9  C   UNL     1     -47.345  -2.526 -26.006  0.00  0.00    +0.000 A 
ATOM     10  C   UNL     1     -47.414  -1.810 -24.807  0.00  0.00    +0.000 A 
ATOM     11  C   UNL     1     -47.306  -2.482 -23.585  0.00  0.00    +0.000 A 
ATOM     12  C   UNL     1     -47.382  -1.722 -22.311  0.00  0.00    +0.000 C 
ATOM     13  C   UNL     1     -47.130  -3.868 -23.563  0.00  0.00    +0.000 A 
ATOM     14  C   UNL     1     -47.058  -4.583 -24.762  0.00  0.00    +0.000 A 
ENDBRANCH   3   8
BRANCH   5  15
ATOM     15  N   UNL     1     -47.220  -4.098 -30.968  0.00  0.00    +0.000 N 
ATOM     16  C   UNL     1     -46.197  -3.343 -31.636  0.00  0.00    +0.000 C 
ATOM     17  O   UNL     1     -45.070  -3.160 -31.102  0.00  0.00    +0.000 OA
ATOM     18  H   UNL     1     -48.080  -4.189 -31.440  0.00  0.00    +0.000 HD
BRANCH  16  19
ATOM     19  C   UNL     1     -46.462  -2.757 -32.983  0.00  0.00    +0.000 C 
ATOM     20  C   UNL     1     -47.106  -3.788 -33.890  0.00  0.00    +0.000 C 
ATOM     21  C   UNL     1     -45.175  -2.255 -33.609  0.00  0.00    +0.000 C 
ENDBRANCH  16  19
ENDBRANCH   5  15
BRANCH   1  22
ATOM     22  C   UNL     1     -46.585  -8.159 -28.285  0.00  0.00    +0.000 C 
BRANCH  22  24
ATOM     23  N   UNL     1     -46.791  -9.175 -25.984  0.00  0.00    +0.000 N 
ATOM     24  C   UNL     1     -46.003  -8.474 -26.951  0.00  0.00    +0.000 C 
ATOM     25  O   UNL     1     -44.826  -8.114 -26.685  0.00  0.00    +0.000 OA
ATOM     26  H   UNL     1     -47.561  -9.692 -26.312  0.00  0.00    +0.000 HD
BRANCH  23  28
ATOM     27  C   UNL     1     -45.751 -10.173 -23.956  0.00  0.00    +0.000 A 
ATOM     28  C   UNL     1     -46.543  -9.179 -24.573  0.00  0.00    +0.000 A 
ATOM     29  C   UNL     1     -47.051  -8.125 -23.805  0.00  0.00    +0.000 A 
ATOM     30  C   UNL     1     -46.824  -8.075 -22.429  0.00  0.00    +0.000 A 
ATOM     31  C   UNL     1     -47.384  -6.959 -21.624  0.00  0.00    +0.000 C 
ATOM     32  C   UNL     1     -46.075  -9.076 -21.808  0.00  0.00    +0.000 A 
ATOM     33  C   UNL     1     -45.537 -10.117 -22.568  0.00  0.00    +0.000 A 
BRANCH  27  35
ATOM     34  C   UNL     1     -45.711 -12.489 -24.840  0.00  0.00    +0.000 C 
ATOM     35  O   UNL     1     -45.164 -11.181 -24.729  0.00  0.00    +0.000 OA
ENDBRANCH  27  35
ENDBRANCH  23  28
ENDBRANCH  22  24
ENDBRANCH   1  22
TORSDOF 7
ENDMDL
MODEL 3
REMARK VINA RESULT:      -7.0      3.241      3.703
REMARK  Name = ZINC000064605344 ZINC64605344 ChemDiv-J046-1135 MCULE-1856858286 MolPort-010-723-805 PubChem-50813209
REMARK  7 active torsions:
REMARK  status: ('A' for Active; 'I' for Inactive)
REMARK    1  A    between atoms: N_1  and  C_22
REMARK    2  A    between atoms: C_3  and  C_8
REMARK    3  A    between atoms: C_5  and  N_15
REMARK    4  A    between atoms: C_16  and  C_19
REMARK    5  A    between atoms: C_22  and  C_24
REMARK    6  A    between atoms: N_23  and  C_28
REMARK    7  A    between atoms: C_27  and  O_35
REMARK                            x       y       z     vdW  Elec       q    Type
REMARK                         _______ _______ _______ _____ _____    ______ ____
ROOT
ATOM      1  N   UNL     1     -46.581  -6.731 -28.151  0.00  0.00    +0.000 N 
ATOM      2  N   UNL     1     -46.709  -5.968 -27.063  0.00  0.00    +0.000 NA
ATOM      3  C   UNL     1     -47.015  -4.645 -27.137  0.00  0.00    +0.000 A 
ATOM      4  C   UNL     1     -47.193  -4.067 -28.395  0.00  0.00    +0.000 A 
ATOM      5  C   UNL     1     -47.059  -4.846 -29.545  0.00  0.00    +0.000 A 
ATOM      6  C   UNL     1     -46.745  -6.203 -29.402  0.00  0.00    +0.000 A 
ATOM      7  O   UNL     1     -46.612  -6.928 -30.426  0.00  0.00    +0.000 OA
ENDROOT
BRANCH   3   8
ATOM      8  C   UNL     1     -47.144  -3.842 -25.902  0.00  0.00    +0.000 A 
ATOM      9  C   UNL     1     -47.290  -2.448 -25.982  0.00  0.00    +0.000 A 
ATOM     10  C   UNL     1     -47.411  -1.679 -24.821  0.00  0.00    +0.000 A 
ATOM     11  C   UNL     1     -47.392  -2.298 -23.568  0.00  0.00    +0.000 A 
ATOM     12  C   UNL     1     -47.523  -1.481 -22.334  0.00  0.00    +0.000 C 
ATOM     13  C   UNL     1     -47.252  -3.685 -23.477  0.00  0.00    +0.000 A 
ATOM     14  C   UNL     1     -47.128  -4.454 -24.637  0.00  0.00    +0.000 A 
ENDBRANCH   3   8
BRANCH   5  15
ATOM     15  N   UNL     1     -47.226  -4.288 -30.858  0.00  0.00    +0.000 N 
ATOM     16  C   UNL     1     -46.246  -3.559 -31.614  0.00  0.00    +0.000 C 
ATOM     17  O   UNL     1     -45.101  -3.327 -31.142  0.00  0.00    +0.000 OA
ATOM     18  H   UNL     1     -48.104  -4.421 -31.285  0.00  0.00    +0.000 HD
BRANCH  16  19
ATOM     19  C   UNL     1     -46.580  -3.060 -32.981  0.00  0.00    +0.000 C 
ATOM     20  C   UNL     1     -47.020  -4.207 -33.869  0.00  0.00    +0.000 C 
ATOM     21  C   UNL     1     -45.385  -2.360 -33.599  0.00  0.00    +0.000 C 
ENDBRANCH  16  19
ENDBRANCH   5  15
BRANCH   1  22
ATOM     22  C   UNL     1     -46.210  -8.130 -27.976  0.00  0.00    +0.000 C 
BRANCH  22  24
ATOM     23  N   UNL     1     -43.917  -7.304 -27.318  0.00  0.00    +0.000 N 
ATOM     24  C   UNL     1     -44.996  -8.224 -27.119  0.00  0.00    +0.000 C 
ATOM     25  O   UNL     1     -44.928  -9.116 -26.233  0.00  0.00    +0.000 OA
ATOM     26  H   UNL     1     -44.117  -6.462 -27.787  0.00  0.00    +0.000 HD
BRANCH  23  28
ATOM     27  C   UNL     1     -41.667  -8.321 -27.620  0.00  0.00    +0.000 A 
ATOM     28  C   UNL     1     -42.569  -7.519 -26.887  0.00  0.00    +0.000 A 
ATOM     29  C   UNL     1     -42.125  -6.855 -25.737  0.00  0.00    +0.000 A 
ATOM     30  C   UNL     1     -40.815  -7.019 -25.283  0.00  0.00    +0.000 A 
ATOM     31  C   UNL     1     -40.364  -6.321 -24.051  0.00  0.00    +0.000 C 
ATOM     32  C   UNL     1     -39.931  -7.842 -25.983  0.00  0.00    +0.000 A 
ATOM     33  C   UNL     1     -40.354  -8.485 -27.148  0.00  0.00    +0.000 A 
BRANCH  27  35
ATOM     34  C   UNL     1     -42.456 -10.283 -28.914  0.00  0.00    +0.000 C 
ATOM     35  O   UNL     1     -42.074  -8.917 -28.819  0.00  0.00    +0.000 OA
ENDBRANCH  27  35
ENDBRANCH  23  28
ENDBRANCH  22  24
ENDBRANCH   1  22
TORSDOF 7
ENDMDL
