MODEL 1
REMARK VINA RESULT:      -6.6      0.000      0.000
REMARK  Name = ZINC000004733041 ZINC04733041 PubChem-92230333
REMARK  6 active torsions:
REMARK  status: ('A' for Active; 'I' for Inactive)
REMARK    1  A    between atoms: C_2  and  O_26
REMARK    2  A    between atoms: C_5  and  N_29
REMARK    3  A    between atoms: C_8  and  C_20
REMARK    4  A    between atoms: C_9  and  C_13
REMARK    5  A    between atoms: C_14  and  C_15
REMARK    6  A    between atoms: C_14  and  N_30
REMARK                            x       y       z     vdW  Elec       q    Type
REMARK                         _______ _______ _______ _____ _____    ______ ____
ROOT
ATOM      1  C   UNL     1     -45.311  -6.810 -30.873  0.00  0.00    +0.000 C 
ATOM      2  C   UNL     1     -45.589  -7.371 -32.287  0.00  0.00    +0.000 C 
ATOM      3  C   UNL     1     -46.761  -8.352 -32.374  0.00  0.00    +0.000 C 
ATOM      4  C   UNL     1     -46.726  -9.313 -31.202  0.00  0.00    +0.000 C 
ATOM      5  C   UNL     1     -46.933  -8.511 -29.966  0.00  0.00    +0.000 C 
ATOM      6  O   UNL     1     -47.749  -8.922 -29.097  0.00  0.00    +0.000 OA
ATOM      7  N   UNL     1     -46.271  -7.234 -29.836  0.00  0.00    +0.000 N 
ENDROOT
BRANCH   1   8
ATOM      8  C   UNL     1     -43.902  -7.086 -30.448  0.00  0.00    +0.000 A 
ATOM      9  C   UNL     1     -43.106  -6.079 -29.885  0.00  0.00    +0.000 A 
ATOM     10  C   UNL     1     -41.793  -6.359 -29.495  0.00  0.00    +0.000 A 
ATOM     11  C   UNL     1     -41.272  -7.646 -29.667  0.00  0.00    +0.000 A 
ATOM     12  C   UNL     1     -42.064  -8.651 -30.230  0.00  0.00    +0.000 A 
ATOM     13  C   UNL     1     -43.378  -8.371 -30.621  0.00  0.00    +0.000 A 
ATOM     14  F   UNL     1     -40.001  -7.919 -29.285  0.00  0.00    +0.000 F 
ENDBRANCH   1   8
BRANCH   7  18
ATOM     15  C   UNL     1     -46.972  -4.561 -26.589  0.00  0.00    +0.000 A 
ATOM     16  C   UNL     1     -47.384  -4.226 -27.887  0.00  0.00    +0.000 A 
ATOM     17  C   UNL     1     -47.157  -5.109 -28.946  0.00  0.00    +0.000 A 
ATOM     18  C   UNL     1     -46.518  -6.341 -28.728  0.00  0.00    +0.000 A 
ATOM     19  C   UNL     1     -46.103  -6.663 -27.425  0.00  0.00    +0.000 A 
ATOM     20  C   UNL     1     -46.332  -5.783 -26.365  0.00  0.00    +0.000 A 
BRANCH  15  22
ATOM     21  C   UNL     1     -47.314  -2.291 -25.666  0.00  0.00    +0.000 C 
ATOM     22  O   UNL     1     -47.181  -3.697 -25.508  0.00  0.00    +0.000 OA
ENDBRANCH  15  22
ENDBRANCH   7  18
BRANCH   2  23
ATOM     23  C   UNL     1     -45.780  -6.249 -33.249  0.00  0.00    +0.000 C 
ATOM     24  O   UNL     1     -45.570  -6.443 -34.477  0.00  0.00    +0.000 OA
ATOM     25  N   UNL     1     -46.171  -4.960 -32.774  0.00  0.00    +0.000 NA
BRANCH  25  26
ATOM     26  C   UNL     1     -46.316  -3.819 -33.662  0.00  0.00    +0.000 C 
BRANCH  26  27
ATOM     27  C   UNL     1     -45.589  -2.651 -33.093  0.00  0.00    +0.000 A 
ATOM     28  C   UNL     1     -45.826  -2.248 -31.776  0.00  0.00    +0.000 A 
ATOM     29  C   UNL     1     -45.120  -1.167 -31.246  0.00  0.00    +0.000 A 
ATOM     30  C   UNL     1     -44.180  -0.508 -32.042  0.00  0.00    +0.000 A 
ATOM     31  C   UNL     1     -44.636  -1.971 -33.856  0.00  0.00    +0.000 A 
ATOM     32  N   UNL     1     -43.958  -0.920 -33.320  0.00  0.00    +0.000 NA
ENDBRANCH  26  27
ENDBRANCH  25  26
ENDBRANCH   2  23
TORSDOF 6
ENDMDL
MODEL 2
REMARK VINA RESULT:      -6.5      3.146      7.157
REMARK  Name = ZINC000004733041 ZINC04733041 PubChem-92230333
REMARK  6 active torsions:
REMARK  status: ('A' for Active; 'I' for Inactive)
REMARK    1  A    between atoms: C_2  and  O_26
REMARK    2  A    between atoms: C_5  and  N_29
REMARK    3  A    between atoms: C_8  and  C_20
REMARK    4  A    between atoms: C_9  and  C_13
REMARK    5  A    between atoms: C_14  and  C_15
REMARK    6  A    between atoms: C_14  and  N_30
REMARK                            x       y       z     vdW  Elec       q    Type
REMARK                         _______ _______ _______ _____ _____    ______ ____
ROOT
ATOM      1  C   UNL     1     -44.977  -4.390 -31.891  0.00  0.00    +0.000 C 
ATOM      2  C   UNL     1     -46.216  -4.026 -31.040  0.00  0.00    +0.000 C 
ATOM      3  C   UNL     1     -47.564  -4.356 -31.687  0.00  0.00    +0.000 C 
ATOM      4  C   UNL     1     -47.548  -3.970 -33.153  0.00  0.00    +0.000 C 
ATOM      5  C   UNL     1     -46.533  -4.827 -33.824  0.00  0.00    +0.000 C 
ATOM      6  O   UNL     1     -46.824  -5.382 -34.918  0.00  0.00    +0.000 OA
ATOM      7  N   UNL     1     -45.276  -5.080 -33.160  0.00  0.00    +0.000 N 
ENDROOT
BRANCH   1   8
ATOM      8  C   UNL     1     -44.108  -3.193 -32.121  0.00  0.00    +0.000 A 
ATOM      9  C   UNL     1     -44.664  -1.940 -32.414  0.00  0.00    +0.000 A 
ATOM     10  C   UNL     1     -43.834  -0.835 -32.625  0.00  0.00    +0.000 A 
ATOM     11  C   UNL     1     -42.445  -0.980 -32.543  0.00  0.00    +0.000 A 
ATOM     12  C   UNL     1     -41.888  -2.229 -32.253  0.00  0.00    +0.000 A 
ATOM     13  C   UNL     1     -42.719  -3.334 -32.042  0.00  0.00    +0.000 A 
ATOM     14  F   UNL     1     -41.640   0.091 -32.743  0.00  0.00    +0.000 F 
ENDBRANCH   1   8
BRANCH   7  18
ATOM     15  C   UNL     1     -42.391  -7.785 -34.757  0.00  0.00    +0.000 A 
ATOM     16  C   UNL     1     -42.436  -6.453 -35.195  0.00  0.00    +0.000 A 
ATOM     17  C   UNL     1     -43.380  -5.570 -34.663  0.00  0.00    +0.000 A 
ATOM     18  C   UNL     1     -44.292  -5.999 -33.685  0.00  0.00    +0.000 A 
ATOM     19  C   UNL     1     -44.244  -7.336 -33.259  0.00  0.00    +0.000 A 
ATOM     20  C   UNL     1     -43.299  -8.220 -33.787  0.00  0.00    +0.000 A 
BRANCH  15  22
ATOM     21  C   UNL     1     -40.084  -8.663 -34.924  0.00  0.00    +0.000 C 
ATOM     22  O   UNL     1     -41.462  -8.695 -35.272  0.00  0.00    +0.000 OA
ENDBRANCH  15  22
ENDBRANCH   7  18
BRANCH   2  23
ATOM     23  C   UNL     1     -46.116  -4.666 -29.698  0.00  0.00    +0.000 C 
ATOM     24  O   UNL     1     -45.264  -5.575 -29.506  0.00  0.00    +0.000 OA
ATOM     25  N   UNL     1     -46.999  -4.265 -28.649  0.00  0.00    +0.000 NA
BRANCH  25  26
ATOM     26  C   UNL     1     -46.981  -4.894 -27.339  0.00  0.00    +0.000 C 
BRANCH  26  27
ATOM     27  C   UNL     1     -47.137  -3.854 -26.286  0.00  0.00    +0.000 A 
ATOM     28  C   UNL     1     -47.305  -2.512 -26.641  0.00  0.00    +0.000 A 
ATOM     29  C   UNL     1     -47.475  -1.549 -25.645  0.00  0.00    +0.000 A 
ATOM     30  C   UNL     1     -47.481  -1.945 -24.305  0.00  0.00    +0.000 A 
ATOM     31  C   UNL     1     -47.155  -4.212 -24.935  0.00  0.00    +0.000 A 
ATOM     32  N   UNL     1     -47.322  -3.258 -23.980  0.00  0.00    +0.000 NA
ENDBRANCH  26  27
ENDBRANCH  25  26
ENDBRANCH   2  23
TORSDOF 6
ENDMDL
MODEL 3
REMARK VINA RESULT:      -6.2      2.905      7.064
REMARK  Name = ZINC000004733041 ZINC04733041 PubChem-92230333
REMARK  6 active torsions:
REMARK  status: ('A' for Active; 'I' for Inactive)
REMARK    1  A    between atoms: C_2  and  O_26
REMARK    2  A    between atoms: C_5  and  N_29
REMARK    3  A    between atoms: C_8  and  C_20
REMARK    4  A    between atoms: C_9  and  C_13
REMARK    5  A    between atoms: C_14  and  C_15
REMARK    6  A    between atoms: C_14  and  N_30
REMARK                            x       y       z     vdW  Elec       q    Type
REMARK                         _______ _______ _______ _____ _____    ______ ____
ROOT
ATOM      1  C   UNL     1     -45.031  -4.331 -32.066  0.00  0.00    +0.000 C 
ATOM      2  C   UNL     1     -46.344  -3.825 -31.424  0.00  0.00    +0.000 C 
ATOM      3  C   UNL     1     -47.623  -4.241 -32.155  0.00  0.00    +0.000 C 
ATOM      4  C   UNL     1     -47.440  -4.094 -33.652  0.00  0.00    +0.000 C 
ATOM      5  C   UNL     1     -46.382  -5.055 -34.065  0.00  0.00    +0.000 C 
ATOM      6  O   UNL     1     -46.570  -5.774 -35.084  0.00  0.00    +0.000 OA
ATOM      7  N   UNL     1     -45.211  -5.211 -33.236  0.00  0.00    +0.000 N 
ENDROOT
BRANCH   1   8
ATOM      8  C   UNL     1     -44.111  -3.194 -32.384  0.00  0.00    +0.000 A 
ATOM      9  C   UNL     1     -42.728  -3.303 -32.180  0.00  0.00    +0.000 A 
ATOM     10  C   UNL     1     -41.887  -2.229 -32.485  0.00  0.00    +0.000 A 
ATOM     11  C   UNL     1     -42.426  -1.042 -32.993  0.00  0.00    +0.000 A 
ATOM     12  C   UNL     1     -43.804  -0.930 -33.195  0.00  0.00    +0.000 A 
ATOM     13  C   UNL     1     -44.646  -2.005 -32.890  0.00  0.00    +0.000 A 
ATOM     14  F   UNL     1     -41.610  -0.002 -33.293  0.00  0.00    +0.000 F 
ENDBRANCH   1   8
BRANCH   7  18
ATOM     15  C   UNL     1     -42.210  -8.152 -33.966  0.00  0.00    +0.000 A 
ATOM     16  C   UNL     1     -43.063  -8.267 -32.858  0.00  0.00    +0.000 A 
ATOM     17  C   UNL     1     -44.049  -7.302 -32.628  0.00  0.00    +0.000 A 
ATOM     18  C   UNL     1     -44.201  -6.211 -33.499  0.00  0.00    +0.000 A 
ATOM     19  C   UNL     1     -43.337  -6.102 -34.601  0.00  0.00    +0.000 A 
ATOM     20  C   UNL     1     -42.354  -7.066 -34.834  0.00  0.00    +0.000 A 
BRANCH  15  22
ATOM     21  C   UNL     1     -40.863 -10.116 -33.293  0.00  0.00    +0.000 C 
ATOM     22  O   UNL     1     -41.211  -9.097 -34.222  0.00  0.00    +0.000 OA
ENDBRANCH  15  22
ENDBRANCH   7  18
BRANCH   2  23
ATOM     23  C   UNL     1     -46.404  -4.244 -29.995  0.00  0.00    +0.000 C 
ATOM     24  O   UNL     1     -46.848  -3.441 -29.131  0.00  0.00    +0.000 OA
ATOM     25  N   UNL     1     -45.936  -5.538 -29.610  0.00  0.00    +0.000 NA
BRANCH  25  26
ATOM     26  C   UNL     1     -45.920  -5.976 -28.225  0.00  0.00    +0.000 C 
BRANCH  26  27
ATOM     27  C   UNL     1     -44.543  -6.398 -27.853  0.00  0.00    +0.000 A 
ATOM     28  C   UNL     1     -43.478  -6.181 -28.732  0.00  0.00    +0.000 A 
ATOM     29  C   UNL     1     -42.186  -6.558 -28.362  0.00  0.00    +0.000 A 
ATOM     30  C   UNL     1     -41.977  -7.143 -27.110  0.00  0.00    +0.000 A 
ATOM     31  C   UNL     1     -44.293  -6.980 -26.607  0.00  0.00    +0.000 A 
ATOM     32  N   UNL     1     -43.026  -7.340 -26.265  0.00  0.00    +0.000 NA
ENDBRANCH  26  27
ENDBRANCH  25  26
ENDBRANCH   2  23
TORSDOF 6
ENDMDL
