MODEL 1
REMARK VINA RESULT:      -7.1      0.000      0.000
REMARK  Name = ZINC000031811413
REMARK  3 active torsions:
REMARK  status: ('A' for Active; 'I' for Inactive)
REMARK    1  A    between atoms: C_1  and  C_27
REMARK    2  A    between atoms: C_24  and  O_33
REMARK    3  A    between atoms: C_29  and  O_30
REMARK                            x       y       z     vdW  Elec       q    Type
REMARK                         _______ _______ _______ _____ _____    ______ ____
ROOT
ATOM      1  C   UNL     1     -44.916 -17.097 -23.413  0.00  0.00    +0.000 C 
ATOM      2  S   UNL     1     -43.449 -17.434 -24.425  0.00  0.00    +0.000 S 
ATOM      3  C   UNL     1     -44.493 -17.454 -25.892  0.00  0.00    +0.000 C 
ATOM      4  C   UNL     1     -44.458 -16.114 -26.524  0.00  0.00    +0.000 C 
ATOM      5  O   UNL     1     -44.049 -16.021 -27.711  0.00  0.00    +0.000 OA
ATOM      6  N   UNL     1     -44.880 -14.929 -25.843  0.00  0.00    +0.000 N 
ATOM      7  C   UNL     1     -45.345 -14.738 -24.495  0.00  0.00    +0.000 A 
ATOM      8  C   UNL     1     -45.301 -15.627 -23.415  0.00  0.00    +0.000 A 
ATOM      9  C   UNL     1     -45.825 -14.872 -22.361  0.00  0.00    +0.000 A 
ATOM     10  C   UNL     1     -46.111 -15.320 -20.970  0.00  0.00    +0.000 C 
ATOM     11  N   UNL     1     -46.114 -13.626 -22.777  0.00  0.00    +0.000 NA
ATOM     12  N   UNL     1     -45.829 -13.552 -24.065  0.00  0.00    +0.000 N 
ATOM     13  H   UNL     1     -44.848 -14.109 -26.388  0.00  0.00    +0.000 HD
ATOM     14  C   UNL     1     -45.999 -12.347 -24.825  0.00  0.00    +0.000 A 
ATOM     15  N   UNL     1     -45.842 -11.130 -24.222  0.00  0.00    +0.000 NA
ATOM     16  C   UNL     1     -46.027  -9.959 -24.911  0.00  0.00    +0.000 A 
ATOM     17  N   UNL     1     -46.391  -9.980 -26.228  0.00  0.00    +0.000 NA
ATOM     18  C   UNL     1     -46.561 -11.184 -26.824  0.00  0.00    +0.000 A 
ATOM     19  N   UNL     1     -46.969 -11.404 -28.080  0.00  0.00    +0.000 N 
ATOM     20  C   UNL     1     -47.032 -12.762 -28.134  0.00  0.00    +0.000 A 
ATOM     21  N   UNL     1     -46.686 -13.378 -26.970  0.00  0.00    +0.000 NA
ATOM     22  C   UNL     1     -46.383 -12.349 -26.166  0.00  0.00    +0.000 A 
ATOM     23  H   UNL     1     -47.173 -10.748 -28.785  0.00  0.00    +0.000 HD
ENDROOT
BRANCH   1  27
ATOM     24  C   UNL     1     -44.353 -18.830 -19.507  0.00  0.00    +0.000 A 
ATOM     25  C   UNL     1     -43.324 -18.101 -20.126  0.00  0.00    +0.000 A 
ATOM     26  C   UNL     1     -43.516 -17.542 -21.391  0.00  0.00    +0.000 A 
ATOM     27  C   UNL     1     -44.736 -17.706 -22.055  0.00  0.00    +0.000 A 
ATOM     28  C   UNL     1     -45.767 -18.432 -21.439  0.00  0.00    +0.000 A 
ATOM     29  C   UNL     1     -45.577 -18.992 -20.173  0.00  0.00    +0.000 A 
BRANCH  29  30
ATOM     30  O   UNL     1     -46.608 -19.709 -19.579  0.00  0.00    +0.000 OA
ATOM     31  H   UNL     1     -46.838 -19.544 -18.685  0.00  0.00    +0.000 HD
ENDBRANCH  29  30
BRANCH  24  33
ATOM     32  C   UNL     1     -42.914 -19.490 -17.604  0.00  0.00    +0.000 C 
ATOM     33  O   UNL     1     -44.181 -19.400 -18.241  0.00  0.00    +0.000 OA
ENDBRANCH  24  33
ENDBRANCH   1  27
TORSDOF 3
ENDMDL
MODEL 2
REMARK VINA RESULT:      -6.8      8.351     12.165
REMARK  Name = ZINC000031811413
REMARK  3 active torsions:
REMARK  status: ('A' for Active; 'I' for Inactive)
REMARK    1  A    between atoms: C_1  and  C_27
REMARK    2  A    between atoms: C_24  and  O_33
REMARK    3  A    between atoms: C_29  and  O_30
REMARK                            x       y       z     vdW  Elec       q    Type
REMARK                         _______ _______ _______ _____ _____    ______ ____
ROOT
ATOM      1  C   UNL     1     -46.351  -6.029 -29.246  0.00  0.00    +0.000 C 
ATOM      2  S   UNL     1     -47.487  -6.322 -30.630  0.00  0.00    +0.000 S 
ATOM      3  C   UNL     1     -47.629  -4.541 -30.861  0.00  0.00    +0.000 C 
ATOM      4  C   UNL     1     -46.672  -4.117 -31.910  0.00  0.00    +0.000 C 
ATOM      5  O   UNL     1     -47.123  -3.549 -32.939  0.00  0.00    +0.000 OA
ATOM      6  N   UNL     1     -45.260  -4.316 -31.792  0.00  0.00    +0.000 N 
ATOM      7  C   UNL     1     -44.487  -4.962 -30.765  0.00  0.00    +0.000 A 
ATOM      8  C   UNL     1     -44.927  -5.766 -29.707  0.00  0.00    +0.000 A 
ATOM      9  C   UNL     1     -43.735  -6.161 -29.091  0.00  0.00    +0.000 A 
ATOM     10  C   UNL     1     -43.571  -6.960 -27.845  0.00  0.00    +0.000 C 
ATOM     11  N   UNL     1     -42.678  -5.665 -29.759  0.00  0.00    +0.000 NA
ATOM     12  N   UNL     1     -43.136  -4.939 -30.763  0.00  0.00    +0.000 N 
ATOM     13  H   UNL     1     -44.730  -3.951 -32.537  0.00  0.00    +0.000 HD
ATOM     14  C   UNL     1     -42.269  -4.279 -31.696  0.00  0.00    +0.000 A 
ATOM     15  N   UNL     1     -41.055  -4.826 -32.007  0.00  0.00    +0.000 NA
ATOM     16  C   UNL     1     -40.190  -4.206 -32.872  0.00  0.00    +0.000 A 
ATOM     17  N   UNL     1     -40.516  -3.007 -33.439  0.00  0.00    +0.000 NA
ATOM     18  C   UNL     1     -41.713  -2.456 -33.121  0.00  0.00    +0.000 A 
ATOM     19  N   UNL     1     -42.179  -1.269 -33.529  0.00  0.00    +0.000 N 
ATOM     20  C   UNL     1     -43.369  -1.182 -32.874  0.00  0.00    +0.000 A 
ATOM     21  N   UNL     1     -43.646  -2.256 -32.085  0.00  0.00    +0.000 NA
ATOM     22  C   UNL     1     -42.581  -3.048 -32.274  0.00  0.00    +0.000 A 
ATOM     23  H   UNL     1     -41.765  -0.624 -34.146  0.00  0.00    +0.000 HD
ENDROOT
BRANCH   1  27
ATOM     24  C   UNL     1     -46.780  -9.157 -26.312  0.00  0.00    +0.000 A 
ATOM     25  C   UNL     1     -46.610  -7.819 -25.918  0.00  0.00    +0.000 A 
ATOM     26  C   UNL     1     -46.472  -6.812 -26.876  0.00  0.00    +0.000 A 
ATOM     27  C   UNL     1     -46.501  -7.128 -28.237  0.00  0.00    +0.000 A 
ATOM     28  C   UNL     1     -46.674  -8.463 -28.635  0.00  0.00    +0.000 A 
ATOM     29  C   UNL     1     -46.812  -9.472 -27.678  0.00  0.00    +0.000 A 
BRANCH  29  30
ATOM     30  O   UNL     1     -46.980 -10.788 -28.089  0.00  0.00    +0.000 OA
ATOM     31  H   UNL     1     -46.827 -11.023 -28.984  0.00  0.00    +0.000 HD
ENDBRANCH  29  30
BRANCH  24  33
ATOM     32  C   UNL     1     -45.812 -10.747 -24.679  0.00  0.00    +0.000 C 
ATOM     33  O   UNL     1     -46.918 -10.180 -25.368  0.00  0.00    +0.000 OA
ENDBRANCH  24  33
ENDBRANCH   1  27
TORSDOF 3
ENDMDL
MODEL 3
REMARK VINA RESULT:      -6.8      2.907      3.599
REMARK  Name = ZINC000031811413
REMARK  3 active torsions:
REMARK  status: ('A' for Active; 'I' for Inactive)
REMARK    1  A    between atoms: C_1  and  C_27
REMARK    2  A    between atoms: C_24  and  O_33
REMARK    3  A    between atoms: C_29  and  O_30
REMARK                            x       y       z     vdW  Elec       q    Type
REMARK                         _______ _______ _______ _____ _____    ______ ____
ROOT
ATOM      1  C   UNL     1     -44.393 -15.683 -26.839  0.00  0.00    +0.000 C 
ATOM      2  S   UNL     1     -42.785 -15.256 -27.562  0.00  0.00    +0.000 S 
ATOM      3  C   UNL     1     -43.629 -14.683 -29.046  0.00  0.00    +0.000 C 
ATOM      4  C   UNL     1     -43.826 -13.217 -28.950  0.00  0.00    +0.000 C 
ATOM      5  O   UNL     1     -43.319 -12.484 -29.839  0.00  0.00    +0.000 OA
ATOM      6  N   UNL     1     -44.575 -12.607 -27.895  0.00  0.00    +0.000 N 
ATOM      7  C   UNL     1     -45.217 -13.187 -26.744  0.00  0.00    +0.000 A 
ATOM      8  C   UNL     1     -45.094 -14.482 -26.228  0.00  0.00    +0.000 A 
ATOM      9  C   UNL     1     -45.887 -14.440 -25.076  0.00  0.00    +0.000 A 
ATOM     10  C   UNL     1     -46.217 -15.561 -24.153  0.00  0.00    +0.000 C 
ATOM     11  N   UNL     1     -46.400 -13.209 -24.907  0.00  0.00    +0.000 NA
ATOM     12  N   UNL     1     -45.998 -12.459 -25.917  0.00  0.00    +0.000 N 
ATOM     13  H   UNL     1     -44.668 -11.630 -27.969  0.00  0.00    +0.000 HD
ATOM     14  C   UNL     1     -46.350 -11.073 -26.036  0.00  0.00    +0.000 A 
ATOM     15  N   UNL     1     -46.536 -10.316 -24.913  0.00  0.00    +0.000 NA
ATOM     16  C   UNL     1     -46.902  -8.996 -24.991  0.00  0.00    +0.000 A 
ATOM     17  N   UNL     1     -47.105  -8.403 -26.206  0.00  0.00    +0.000 NA
ATOM     18  C   UNL     1     -46.934  -9.156 -27.319  0.00  0.00    +0.000 A 
ATOM     19  N   UNL     1     -47.142  -8.769 -28.584  0.00  0.00    +0.000 N 
ATOM     20  C   UNL     1     -46.892  -9.910 -29.284  0.00  0.00    +0.000 A 
ATOM     21  N   UNL     1     -46.547 -10.971 -28.504  0.00  0.00    +0.000 NA
ATOM     22  C   UNL     1     -46.573 -10.455 -27.267  0.00  0.00    +0.000 A 
ATOM     23  H   UNL     1     -47.408  -7.884 -28.922  0.00  0.00    +0.000 HD
ENDROOT
BRANCH   1  27
ATOM     24  C   UNL     1     -43.892 -19.043 -24.186  0.00  0.00    +0.000 A 
ATOM     25  C   UNL     1     -43.074 -17.907 -24.071  0.00  0.00    +0.000 A 
ATOM     26  C   UNL     1     -43.244 -16.823 -24.934  0.00  0.00    +0.000 A 
ATOM     27  C   UNL     1     -44.231 -16.860 -25.924  0.00  0.00    +0.000 A 
ATOM     28  C   UNL     1     -45.052 -17.991 -26.041  0.00  0.00    +0.000 A 
ATOM     29  C   UNL     1     -44.884 -19.077 -25.177  0.00  0.00    +0.000 A 
BRANCH  29  30
ATOM     30  O   UNL     1     -45.705 -20.190 -25.308  0.00  0.00    +0.000 OA
ATOM     31  H   UNL     1     -46.582 -20.091 -25.624  0.00  0.00    +0.000 HD
ENDBRANCH  29  30
BRANCH  24  33
ATOM     32  C   UNL     1     -42.659 -21.058 -23.446  0.00  0.00    +0.000 C 
ATOM     33  O   UNL     1     -43.738 -20.140 -23.332  0.00  0.00    +0.000 OA
ENDBRANCH  24  33
ENDBRANCH   1  27
TORSDOF 3
ENDMDL
