MODEL 1
REMARK VINA RESULT:      -6.2      0.000      0.000
REMARK  Name = ZINC000005372517 ZINC05372517 PubChem-92261927
REMARK  9 active torsions:
REMARK  status: ('A' for Active; 'I' for Inactive)
REMARK    1  A    between atoms: N_14  and  C_20
REMARK    2  A    between atoms: C_20  and  C_21
REMARK    3  A    between atoms: C_21  and  O_22
REMARK    4  A    between atoms: C_21  and  C_24
REMARK    5  A    between atoms: C_24  and  O_25
REMARK    6  A    between atoms: C_24  and  C_27
REMARK    7  A    between atoms: C_27  and  O_28
REMARK    8  A    between atoms: C_27  and  C_30
REMARK    9  A    between atoms: C_30  and  O_31
REMARK                            x       y       z     vdW  Elec       q    Type
REMARK                         _______ _______ _______ _____ _____    ______ ____
ROOT
ATOM      1  C   UNL     1     -47.126  -3.494 -23.518  0.00  0.00    +0.000 C 
ATOM      2  C   UNL     1     -47.099  -3.921 -24.946  0.00  0.00    +0.000 A 
ATOM      3  C   UNL     1     -46.766  -5.244 -25.244  0.00  0.00    +0.000 A 
ATOM      4  C   UNL     1     -46.729  -5.686 -26.569  0.00  0.00    +0.000 A 
ATOM      5  C   UNL     1     -46.388  -7.009 -26.830  0.00  0.00    +0.000 A 
ATOM      6  C   UNL     1     -46.342  -7.465 -28.141  0.00  0.00    +0.000 A 
ATOM      7  C   UNL     1     -46.000  -8.783 -28.468  0.00  0.00    +0.000 A 
ATOM      8  O   UNL     1     -45.722  -9.618 -27.566  0.00  0.00    +0.000 OA
ATOM      9  N   UNL     1     -45.966  -9.169 -29.772  0.00  0.00    +0.000 N 
ATOM     10  C   UNL     1     -46.253  -8.322 -30.798  0.00  0.00    +0.000 A 
ATOM     11  O   UNL     1     -46.201  -8.739 -31.983  0.00  0.00    +0.000 OA
ATOM     12  C   UNL     1     -46.602  -6.993 -30.549  0.00  0.00    +0.000 A 
ATOM     13  C   UNL     1     -46.663  -6.519 -29.234  0.00  0.00    +0.000 A 
ATOM     14  N   UNL     1     -47.005  -5.223 -28.938  0.00  0.00    +0.000 N 
ATOM     15  C   UNL     1     -47.033  -4.795 -27.631  0.00  0.00    +0.000 A 
ATOM     16  C   UNL     1     -47.362  -3.465 -27.312  0.00  0.00    +0.000 A 
ATOM     17  C   UNL     1     -47.397  -3.025 -25.987  0.00  0.00    +0.000 A 
ATOM     18  C   UNL     1     -47.756  -1.604 -25.714  0.00  0.00    +0.000 C 
ATOM     19  H   UNL     1     -45.724 -10.099 -29.982  0.00  0.00    +0.000 HD
ENDROOT
BRANCH  14  20
ATOM     20  C   UNL     1     -47.348  -4.291 -30.020  0.00  0.00    +0.000 C 
BRANCH  20  21
ATOM     21  C   UNL     1     -46.091  -3.732 -30.677  0.00  0.00    +0.000 C 
BRANCH  21  22
ATOM     22  O   UNL     1     -45.918  -2.400 -30.291  0.00  0.00    +0.000 OA
ATOM     23  H   UNL     1     -46.644  -2.137 -29.704  0.00  0.00    +0.000 HD
ENDBRANCH  21  22
BRANCH  21  24
ATOM     24  C   UNL     1     -46.164  -3.853 -32.202  0.00  0.00    +0.000 C 
BRANCH  24  25
ATOM     25  O   UNL     1     -47.168  -3.037 -32.731  0.00  0.00    +0.000 OA
ATOM     26  H   UNL     1     -47.579  -2.524 -32.018  0.00  0.00    +0.000 HD
ENDBRANCH  24  25
BRANCH  24  27
ATOM     27  C   UNL     1     -44.823  -3.604 -32.900  0.00  0.00    +0.000 C 
BRANCH  27  28
ATOM     28  O   UNL     1     -43.788  -3.658 -31.967  0.00  0.00    +0.000 OA
ATOM     29  H   UNL     1     -43.776  -4.531 -31.544  0.00  0.00    +0.000 HD
ENDBRANCH  27  28
BRANCH  27  30
ATOM     30  C   UNL     1     -44.767  -2.279 -33.650  0.00  0.00    +0.000 C 
BRANCH  30  31
ATOM     31  O   UNL     1     -44.789  -1.215 -32.747  0.00  0.00    +0.000 OA
ATOM     32  H   UNL     1     -45.587  -1.274 -32.198  0.00  0.00    +0.000 HD
ENDBRANCH  30  31
ENDBRANCH  27  30
ENDBRANCH  24  27
ENDBRANCH  21  24
ENDBRANCH  20  21
ENDBRANCH  14  20
TORSDOF 9
ENDMDL
MODEL 2
REMARK VINA RESULT:      -6.1     11.820     15.675
REMARK  Name = ZINC000005372517 ZINC05372517 PubChem-92261927
REMARK  9 active torsions:
REMARK  status: ('A' for Active; 'I' for Inactive)
REMARK    1  A    between atoms: N_14  and  C_20
REMARK    2  A    between atoms: C_20  and  C_21
REMARK    3  A    between atoms: C_21  and  O_22
REMARK    4  A    between atoms: C_21  and  C_24
REMARK    5  A    between atoms: C_24  and  O_25
REMARK    6  A    between atoms: C_24  and  C_27
REMARK    7  A    between atoms: C_27  and  O_28
REMARK    8  A    between atoms: C_27  and  C_30
REMARK    9  A    between atoms: C_30  and  O_31
REMARK                            x       y       z     vdW  Elec       q    Type
REMARK                         _______ _______ _______ _____ _____    ______ ____
ROOT
ATOM      1  C   UNL     1     -46.577 -12.616 -19.349  0.00  0.00    +0.000 C 
ATOM      2  C   UNL     1     -46.321 -13.941 -19.981  0.00  0.00    +0.000 A 
ATOM      3  C   UNL     1     -46.145 -14.001 -21.365  0.00  0.00    +0.000 A 
ATOM      4  C   UNL     1     -45.903 -15.222 -21.999  0.00  0.00    +0.000 A 
ATOM      5  C   UNL     1     -45.739 -15.246 -23.379  0.00  0.00    +0.000 A 
ATOM      6  C   UNL     1     -45.501 -16.452 -24.027  0.00  0.00    +0.000 A 
ATOM      7  C   UNL     1     -45.332 -16.541 -25.415  0.00  0.00    +0.000 A 
ATOM      8  O   UNL     1     -45.386 -15.510 -26.137  0.00  0.00    +0.000 OA
ATOM      9  N   UNL     1     -45.108 -17.752 -25.992  0.00  0.00    +0.000 N 
ATOM     10  C   UNL     1     -45.039 -18.908 -25.275  0.00  0.00    +0.000 A 
ATOM     11  O   UNL     1     -44.831 -19.997 -25.868  0.00  0.00    +0.000 OA
ATOM     12  C   UNL     1     -45.196 -18.897 -23.888  0.00  0.00    +0.000 A 
ATOM     13  C   UNL     1     -45.427 -17.690 -23.218  0.00  0.00    +0.000 A 
ATOM     14  N   UNL     1     -45.584 -17.627 -21.856  0.00  0.00    +0.000 N 
ATOM     15  C   UNL     1     -45.828 -16.421 -21.242  0.00  0.00    +0.000 A 
ATOM     16  C   UNL     1     -46.012 -16.342 -19.850  0.00  0.00    +0.000 A 
ATOM     17  C   UNL     1     -46.256 -15.120 -19.218  0.00  0.00    +0.000 A 
ATOM     18  C   UNL     1     -46.439 -15.103 -17.739  0.00  0.00    +0.000 C 
ATOM     19  H   UNL     1     -44.992 -17.795 -26.967  0.00  0.00    +0.000 HD
ENDROOT
BRANCH  14  20
ATOM     20  C   UNL     1     -45.486 -18.851 -21.050  0.00  0.00    +0.000 C 
BRANCH  20  21
ATOM     21  C   UNL     1     -44.064 -19.053 -20.538  0.00  0.00    +0.000 C 
BRANCH  21  22
ATOM     22  O   UNL     1     -43.396 -19.959 -21.363  0.00  0.00    +0.000 OA
ATOM     23  H   UNL     1     -42.470 -20.032 -21.082  0.00  0.00    +0.000 HD
ENDBRANCH  21  22
BRANCH  21  24
ATOM     24  C   UNL     1     -44.065 -19.538 -19.084  0.00  0.00    +0.000 C 
BRANCH  24  25
ATOM     25  O   UNL     1     -45.251 -20.209 -18.771  0.00  0.00    +0.000 OA
ATOM     26  H   UNL     1     -45.576 -19.908 -17.908  0.00  0.00    +0.000 HD
ENDBRANCH  24  25
BRANCH  24  27
ATOM     27  C   UNL     1     -42.839 -20.381 -18.720  0.00  0.00    +0.000 C 
BRANCH  27  28
ATOM     28  O   UNL     1     -43.246 -21.628 -18.245  0.00  0.00    +0.000 OA
ATOM     29  H   UNL     1     -44.068 -21.891 -18.688  0.00  0.00    +0.000 HD
ENDBRANCH  27  28
BRANCH  27  30
ATOM     30  C   UNL     1     -41.929 -19.715 -17.695  0.00  0.00    +0.000 C 
BRANCH  30  31
ATOM     31  O   UNL     1     -42.590 -19.596 -16.472  0.00  0.00    +0.000 OA
ATOM     32  H   UNL     1     -43.393 -19.063 -16.589  0.00  0.00    +0.000 HD
ENDBRANCH  30  31
ENDBRANCH  27  30
ENDBRANCH  24  27
ENDBRANCH  21  24
ENDBRANCH  20  21
ENDBRANCH  14  20
TORSDOF 9
ENDMDL
MODEL 3
REMARK VINA RESULT:      -6.0     12.715     16.919
REMARK  Name = ZINC000005372517 ZINC05372517 PubChem-92261927
REMARK  9 active torsions:
REMARK  status: ('A' for Active; 'I' for Inactive)
REMARK    1  A    between atoms: N_14  and  C_20
REMARK    2  A    between atoms: C_20  and  C_21
REMARK    3  A    between atoms: C_21  and  O_22
REMARK    4  A    between atoms: C_21  and  C_24
REMARK    5  A    between atoms: C_24  and  O_25
REMARK    6  A    between atoms: C_24  and  C_27
REMARK    7  A    between atoms: C_27  and  O_28
REMARK    8  A    between atoms: C_27  and  C_30
REMARK    9  A    between atoms: C_30  and  O_31
REMARK                            x       y       z     vdW  Elec       q    Type
REMARK                         _______ _______ _______ _____ _____    ______ ____
ROOT
ATOM      1  C   UNL     1     -44.264 -18.449 -26.167  0.00  0.00    +0.000 C 
ATOM      2  C   UNL     1     -44.536 -18.288 -24.710  0.00  0.00    +0.000 A 
ATOM      3  C   UNL     1     -45.054 -17.074 -24.255  0.00  0.00    +0.000 A 
ATOM      4  C   UNL     1     -45.324 -16.881 -22.898  0.00  0.00    +0.000 A 
ATOM      5  C   UNL     1     -45.833 -15.657 -22.479  0.00  0.00    +0.000 A 
ATOM      6  C   UNL     1     -46.104 -15.445 -21.132  0.00  0.00    +0.000 A 
ATOM      7  C   UNL     1     -46.613 -14.234 -20.648  0.00  0.00    +0.000 A 
ATOM      8  O   UNL     1     -46.852 -13.277 -21.433  0.00  0.00    +0.000 OA
ATOM      9  N   UNL     1     -46.851 -14.085 -19.317  0.00  0.00    +0.000 N 
ATOM     10  C   UNL     1     -46.616 -15.074 -18.412  0.00  0.00    +0.000 A 
ATOM     11  O   UNL     1     -46.855 -14.873 -17.194  0.00  0.00    +0.000 OA
ATOM     12  C   UNL     1     -46.109 -16.309 -18.821  0.00  0.00    +0.000 A 
ATOM     13  C   UNL     1     -45.840 -16.543 -20.174  0.00  0.00    +0.000 A 
ATOM     14  N   UNL     1     -45.346 -17.741 -20.626  0.00  0.00    +0.000 N 
ATOM     15  C   UNL     1     -45.078 -17.920 -21.963  0.00  0.00    +0.000 A 
ATOM     16  C   UNL     1     -44.552 -19.135 -22.439  0.00  0.00    +0.000 A 
ATOM     17  C   UNL     1     -44.282 -19.325 -23.796  0.00  0.00    +0.000 A 
ATOM     18  C   UNL     1     -43.728 -20.637 -24.238  0.00  0.00    +0.000 C 
ATOM     19  H   UNL     1     -47.209 -13.227 -18.996  0.00  0.00    +0.000 HD
ENDROOT
BRANCH  14  20
ATOM     20  C   UNL     1     -45.108 -18.839 -19.679  0.00  0.00    +0.000 C 
BRANCH  20  21
ATOM     21  C   UNL     1     -43.821 -18.612 -18.894  0.00  0.00    +0.000 C 
BRANCH  21  22
ATOM     22  O   UNL     1     -42.866 -18.025 -19.726  0.00  0.00    +0.000 OA
ATOM     23  H   UNL     1     -42.057 -17.851 -19.219  0.00  0.00    +0.000 HD
ENDBRANCH  21  22
BRANCH  21  24
ATOM     24  C   UNL     1     -43.297 -19.924 -18.302  0.00  0.00    +0.000 C 
BRANCH  24  25
ATOM     25  O   UNL     1     -44.296 -20.901 -18.264  0.00  0.00    +0.000 OA
ATOM     26  H   UNL     1     -44.724 -20.961 -19.132  0.00  0.00    +0.000 HD
ENDBRANCH  24  25
BRANCH  24  27
ATOM     27  C   UNL     1     -42.036 -20.447 -18.997  0.00  0.00    +0.000 C 
BRANCH  27  28
ATOM     28  O   UNL     1     -42.364 -20.945 -20.259  0.00  0.00    +0.000 OA
ATOM     29  H   UNL     1     -41.810 -21.715 -20.458  0.00  0.00    +0.000 HD
ENDBRANCH  27  28
BRANCH  27  30
ATOM     30  C   UNL     1     -41.306 -21.521 -18.199  0.00  0.00    +0.000 C 
BRANCH  30  31
ATOM     31  O   UNL     1     -41.843 -21.614 -16.915  0.00  0.00    +0.000 OA
ATOM     32  H   UNL     1     -41.493 -20.894 -16.366  0.00  0.00    +0.000 HD
ENDBRANCH  30  31
ENDBRANCH  27  30
ENDBRANCH  24  27
ENDBRANCH  21  24
ENDBRANCH  20  21
ENDBRANCH  14  20
TORSDOF 9
ENDMDL
