MODEL 1
REMARK VINA RESULT:      -7.5      0.000      0.000
REMARK  Name = ZINC000100138715
REMARK  4 active torsions:
REMARK  status: ('A' for Active; 'I' for Inactive)
REMARK    1  A    between atoms: C_1  and  C_13
REMARK    2  A    between atoms: C_6  and  C_21
REMARK    3  A    between atoms: C_16  and  O_17
REMARK    4  A    between atoms: C_21  and  C_22
REMARK                            x       y       z     vdW  Elec       q    Type
REMARK                         _______ _______ _______ _____ _____    ______ ____
ROOT
ATOM      1  C   UNL     1     -46.319  -3.228 -32.279  0.00  0.00    +0.000 C 
ATOM      2  C   UNL     1     -46.961  -3.217 -33.655  0.00  0.00    +0.000 C 
ATOM      3  C   UNL     1     -47.006  -4.666 -34.128  0.00  0.00    +0.000 C 
ATOM      4  C   UNL     1     -46.728  -5.532 -32.913  0.00  0.00    +0.000 C 
ATOM      5  N   UNL     1     -46.313  -4.620 -31.867  0.00  0.00    +0.000 N 
ATOM      6  C   UNL     1     -45.891  -5.056 -30.568  0.00  0.00    +0.000 C 
ATOM      7  O   UNL     1     -45.797  -4.227 -29.623  0.00  0.00    +0.000 OA
ENDROOT
BRANCH   1  13
ATOM      8  C   UNL     1     -39.989   0.430 -32.326  0.00  0.00    +0.000 C 
ATOM      9  C   UNL     1     -40.969  -0.688 -32.451  0.00  0.00    +0.000 A 
ATOM     10  N   UNL     1     -42.289  -0.435 -32.213  0.00  0.00    +0.000 NA
ATOM     11  C   UNL     1     -43.185  -1.445 -32.326  0.00  0.00    +0.000 A 
ATOM     12  C   UNL     1     -44.548  -1.386 -32.119  0.00  0.00    +0.000 A 
ATOM     13  C   UNL     1     -44.917  -2.711 -32.369  0.00  0.00    +0.000 A 
ATOM     14  N   UNL     1     -43.851  -3.481 -32.697  0.00  0.00    +0.000 NA
ATOM     15  N   UNL     1     -42.805  -2.680 -32.661  0.00  0.00    +0.000 N 
ATOM     16  C   UNL     1     -41.515  -3.008 -32.909  0.00  0.00    +0.000 A 
ATOM     17  C   UNL     1     -40.545  -1.995 -32.808  0.00  0.00    +0.000 A 
ATOM     18  C   UNL     1     -39.106  -2.304 -33.066  0.00  0.00    +0.000 C 
BRANCH  16  19
ATOM     19  O   UNL     1     -41.168  -4.310 -33.255  0.00  0.00    +0.000 OA
ATOM     20  H   UNL     1     -40.624  -4.467 -34.002  0.00  0.00    +0.000 HD
ENDBRANCH  16  19
ENDBRANCH   1  13
BRANCH   6  21
ATOM     21  C   UNL     1     -45.465  -6.469 -30.343  0.00  0.00    +0.000 C 
BRANCH  21  22
ATOM     22  C   UNL     1     -45.618  -6.810 -28.892  0.00  0.00    +0.000 A 
ATOM     23  N   UNL     1     -46.845  -7.166 -28.424  0.00  0.00    +0.000 NA
ATOM     24  N   UNL     1     -47.037  -7.531 -27.155  0.00  0.00    +0.000 N 
ATOM     25  C   UNL     1     -46.015  -7.571 -26.262  0.00  0.00    +0.000 A 
ATOM     26  O   UNL     1     -46.238  -7.939 -25.077  0.00  0.00    +0.000 OA
ATOM     27  C   UNL     1     -44.724  -7.215 -26.675  0.00  0.00    +0.000 A 
ATOM     28  C   UNL     1     -43.639  -7.247 -25.787  0.00  0.00    +0.000 A 
ATOM     29  C   UNL     1     -42.360  -6.896 -26.228  0.00  0.00    +0.000 A 
ATOM     30  C   UNL     1     -42.156  -6.513 -27.555  0.00  0.00    +0.000 A 
ATOM     31  C   UNL     1     -43.230  -6.480 -28.448  0.00  0.00    +0.000 A 
ATOM     32  C   UNL     1     -44.520  -6.828 -28.018  0.00  0.00    +0.000 A 
ATOM     33  H   UNL     1     -47.943  -7.776 -26.859  0.00  0.00    +0.000 HD
ENDBRANCH  21  22
ENDBRANCH   6  21
TORSDOF 4
ENDMDL
MODEL 2
REMARK VINA RESULT:      -7.4      2.491      7.042
REMARK  Name = ZINC000100138715
REMARK  4 active torsions:
REMARK  status: ('A' for Active; 'I' for Inactive)
REMARK    1  A    between atoms: C_1  and  C_13
REMARK    2  A    between atoms: C_6  and  C_21
REMARK    3  A    between atoms: C_16  and  O_17
REMARK    4  A    between atoms: C_21  and  C_22
REMARK                            x       y       z     vdW  Elec       q    Type
REMARK                         _______ _______ _______ _____ _____    ______ ____
ROOT
ATOM      1  C   UNL     1     -44.887  -8.513 -31.913  0.00  0.00    +0.000 C 
ATOM      2  C   UNL     1     -45.912  -9.572 -32.279  0.00  0.00    +0.000 C 
ATOM      3  C   UNL     1     -46.673  -9.044 -33.490  0.00  0.00    +0.000 C 
ATOM      4  C   UNL     1     -45.873  -7.875 -34.033  0.00  0.00    +0.000 C 
ATOM      5  N   UNL     1     -44.848  -7.606 -33.045  0.00  0.00    +0.000 N 
ATOM      6  C   UNL     1     -43.919  -6.519 -33.154  0.00  0.00    +0.000 C 
ATOM      7  O   UNL     1     -42.895  -6.488 -32.419  0.00  0.00    +0.000 OA
ENDROOT
BRANCH   1  13
ATOM      8  C   UNL     1     -46.320  -5.827 -25.266  0.00  0.00    +0.000 C 
ATOM      9  C   UNL     1     -46.316  -5.981 -26.750  0.00  0.00    +0.000 A 
ATOM     10  N   UNL     1     -45.632  -7.027 -27.300  0.00  0.00    +0.000 NA
ATOM     11  C   UNL     1     -45.624  -7.175 -28.646  0.00  0.00    +0.000 A 
ATOM     12  C   UNL     1     -44.988  -8.156 -29.379  0.00  0.00    +0.000 A 
ATOM     13  C   UNL     1     -45.329  -7.783 -30.683  0.00  0.00    +0.000 A 
ATOM     14  N   UNL     1     -46.104  -6.671 -30.706  0.00  0.00    +0.000 NA
ATOM     15  N   UNL     1     -46.267  -6.321 -29.446  0.00  0.00    +0.000 N 
ATOM     16  C   UNL     1     -46.964  -5.260 -28.974  0.00  0.00    +0.000 A 
ATOM     17  C   UNL     1     -47.005  -5.062 -27.583  0.00  0.00    +0.000 A 
ATOM     18  C   UNL     1     -47.756  -3.903 -27.011  0.00  0.00    +0.000 C 
BRANCH  16  19
ATOM     19  O   UNL     1     -47.618  -4.397 -29.849  0.00  0.00    +0.000 OA
ATOM     20  H   UNL     1     -47.123  -3.872 -30.445  0.00  0.00    +0.000 HD
ENDBRANCH  16  19
ENDBRANCH   1  13
BRANCH   6  21
ATOM     21  C   UNL     1     -44.199  -5.369 -34.063  0.00  0.00    +0.000 C 
BRANCH  21  22
ATOM     22  C   UNL     1     -44.534  -4.159 -33.246  0.00  0.00    +0.000 A 
ATOM     23  N   UNL     1     -45.726  -4.113 -32.592  0.00  0.00    +0.000 NA
ATOM     24  N   UNL     1     -46.061  -3.088 -31.807  0.00  0.00    +0.000 N 
ATOM     25  C   UNL     1     -45.226  -2.034 -31.614  0.00  0.00    +0.000 A 
ATOM     26  O   UNL     1     -45.576  -1.095 -30.850  0.00  0.00    +0.000 OA
ATOM     27  C   UNL     1     -43.982  -2.015 -32.259  0.00  0.00    +0.000 A 
ATOM     28  C   UNL     1     -43.087  -0.949 -32.083  0.00  0.00    +0.000 A 
ATOM     29  C   UNL     1     -41.848  -0.959 -32.730  0.00  0.00    +0.000 A 
ATOM     30  C   UNL     1     -41.495  -2.030 -33.553  0.00  0.00    +0.000 A 
ATOM     31  C   UNL     1     -42.379  -3.097 -33.732  0.00  0.00    +0.000 A 
ATOM     32  C   UNL     1     -43.627  -3.099 -33.090  0.00  0.00    +0.000 A 
ATOM     33  H   UNL     1     -46.937  -3.095 -31.358  0.00  0.00    +0.000 HD
ENDBRANCH  21  22
ENDBRANCH   6  21
TORSDOF 4
ENDMDL
MODEL 3
REMARK VINA RESULT:      -7.4      4.075      7.114
REMARK  Name = ZINC000100138715
REMARK  4 active torsions:
REMARK  status: ('A' for Active; 'I' for Inactive)
REMARK    1  A    between atoms: C_1  and  C_13
REMARK    2  A    between atoms: C_6  and  C_21
REMARK    3  A    between atoms: C_16  and  O_17
REMARK    4  A    between atoms: C_21  and  C_22
REMARK                            x       y       z     vdW  Elec       q    Type
REMARK                         _______ _______ _______ _____ _____    ______ ____
ROOT
ATOM      1  C   UNL     1     -44.842  -6.789 -31.789  0.00  0.00    +0.000 C 
ATOM      2  C   UNL     1     -45.229  -6.839 -33.257  0.00  0.00    +0.000 C 
ATOM      3  C   UNL     1     -46.548  -6.088 -33.388  0.00  0.00    +0.000 C 
ATOM      4  C   UNL     1     -46.741  -5.315 -32.096  0.00  0.00    +0.000 C 
ATOM      5  N   UNL     1     -45.711  -5.791 -31.195  0.00  0.00    +0.000 N 
ATOM      6  C   UNL     1     -45.595  -5.352 -29.835  0.00  0.00    +0.000 C 
ATOM      7  O   UNL     1     -44.542  -5.588 -29.183  0.00  0.00    +0.000 OA
ENDROOT
BRANCH   1  13
ATOM      8  C   UNL     1     -45.077 -13.729 -29.500  0.00  0.00    +0.000 C 
ATOM      9  C   UNL     1     -45.380 -12.272 -29.607  0.00  0.00    +0.000 A 
ATOM     10  N   UNL     1     -44.721 -11.531 -30.546  0.00  0.00    +0.000 NA
ATOM     11  C   UNL     1     -44.991 -10.208 -30.651  0.00  0.00    +0.000 A 
ATOM     12  C   UNL     1     -44.427  -9.302 -31.525  0.00  0.00    +0.000 A 
ATOM     13  C   UNL     1     -45.082  -8.124 -31.155  0.00  0.00    +0.000 A 
ATOM     14  N   UNL     1     -45.961  -8.329 -30.144  0.00  0.00    +0.000 NA
ATOM     15  N   UNL     1     -45.883  -9.613 -29.855  0.00  0.00    +0.000 N 
ATOM     16  C   UNL     1     -46.572 -10.280 -28.900  0.00  0.00    +0.000 A 
ATOM     17  C   UNL     1     -46.331 -11.657 -28.751  0.00  0.00    +0.000 A 
ATOM     18  C   UNL     1     -47.061 -12.440 -27.709  0.00  0.00    +0.000 C 
BRANCH  16  19
ATOM     19  O   UNL     1     -47.492  -9.615 -28.094  0.00  0.00    +0.000 OA
ATOM     20  H   UNL     1     -47.910  -8.837 -28.405  0.00  0.00    +0.000 HD
ENDBRANCH  16  19
ENDBRANCH   1  13
BRANCH   6  21
ATOM     21  C   UNL     1     -46.748  -4.702 -29.146  0.00  0.00    +0.000 C 
BRANCH  21  22
ATOM     22  C   UNL     1     -46.871  -5.249 -27.757  0.00  0.00    +0.000 A 
ATOM     23  N   UNL     1     -46.749  -6.589 -27.562  0.00  0.00    +0.000 NA
ATOM     24  N   UNL     1     -46.797  -7.133 -26.345  0.00  0.00    +0.000 N 
ATOM     25  C   UNL     1     -46.965  -6.374 -25.231  0.00  0.00    +0.000 A 
ATOM     26  O   UNL     1     -46.986  -6.928 -24.099  0.00  0.00    +0.000 OA
ATOM     27  C   UNL     1     -47.099  -4.985 -25.357  0.00  0.00    +0.000 A 
ATOM     28  C   UNL     1     -47.269  -4.164 -24.233  0.00  0.00    +0.000 A 
ATOM     29  C   UNL     1     -47.390  -2.780 -24.387  0.00  0.00    +0.000 A 
ATOM     30  C   UNL     1     -47.341  -2.208 -25.660  0.00  0.00    +0.000 A 
ATOM     31  C   UNL     1     -47.171  -3.018 -26.785  0.00  0.00    +0.000 A 
ATOM     32  C   UNL     1     -47.049  -4.409 -26.645  0.00  0.00    +0.000 A 
ATOM     33  H   UNL     1     -46.710  -8.109 -26.252  0.00  0.00    +0.000 HD
ENDBRANCH  21  22
ENDBRANCH   6  21
TORSDOF 4
ENDMDL
