MODEL 1
REMARK VINA RESULT:      -8.4      0.000      0.000
REMARK  Name = ZINC000002970981 ZINC02970981 ChemDiv-K284-1944 MCULE-9607552090 MolPort-007-910-227 PubChem-5199573
REMARK  6 active torsions:
REMARK  status: ('A' for Active; 'I' for Inactive)
REMARK    1  A    between atoms: C_1  and  S_12
REMARK    2  A    between atoms: N_11  and  C_26
REMARK    3  A    between atoms: S_12  and  C_13
REMARK    4  A    between atoms: C_13  and  C_15
REMARK    5  A    between atoms: N_14  and  C_22
REMARK    6  A    between atoms: C_26  and  C_27
REMARK                            x       y       z     vdW  Elec       q    Type
REMARK                         _______ _______ _______ _____ _____    ______ ____
ROOT
ATOM      1  C   UNL     1     -46.902  -6.211 -31.732  0.00  0.00    +0.000 A 
ATOM      2  N   UNL     1     -46.749  -7.529 -31.437  0.00  0.00    +0.000 NA
ATOM      3  C   UNL     1     -46.370  -8.424 -32.380  0.00  0.00    +0.000 A 
ATOM      4  C   UNL     1     -46.217  -9.773 -32.046  0.00  0.00    +0.000 A 
ATOM      5  C   UNL     1     -45.824 -10.694 -33.021  0.00  0.00    +0.000 A 
ATOM      6  C   UNL     1     -45.583 -10.269 -34.331  0.00  0.00    +0.000 A 
ATOM      7  C   UNL     1     -45.736  -8.921 -34.670  0.00  0.00    +0.000 A 
ATOM      8  C   UNL     1     -46.130  -7.992 -33.697  0.00  0.00    +0.000 A 
ATOM      9  C   UNL     1     -46.299  -6.634 -33.994  0.00  0.00    +0.000 A 
ATOM     10  O   UNL     1     -46.098  -6.218 -35.169  0.00  0.00    +0.000 OA
ATOM     11  N   UNL     1     -46.685  -5.760 -33.010  0.00  0.00    +0.000 N 
ENDROOT
BRANCH   1  12
ATOM     12  S   UNL     1     -47.382  -5.098 -30.406  0.00  0.00    +0.000 S 
BRANCH  12  13
ATOM     13  C   UNL     1     -46.900  -6.302 -29.134  0.00  0.00    +0.000 C 
BRANCH  13  15
ATOM     14  N   UNL     1     -47.593  -4.761 -27.268  0.00  0.00    +0.000 N 
ATOM     15  C   UNL     1     -46.595  -5.602 -27.859  0.00  0.00    +0.000 C 
ATOM     16  O   UNL     1     -45.477  -5.779 -27.307  0.00  0.00    +0.000 OA
ATOM     17  H   UNL     1     -48.456  -4.704 -27.738  0.00  0.00    +0.000 HD
BRANCH  14  22
ATOM     18  C   UNL     1     -47.077  -1.552 -22.547  0.00  0.00    +0.000 C 
ATOM     19  C   UNL     1     -47.210  -2.417 -23.753  0.00  0.00    +0.000 A 
ATOM     20  C   UNL     1     -47.326  -1.813 -25.008  0.00  0.00    +0.000 A 
ATOM     21  C   UNL     1     -47.452  -2.596 -26.158  0.00  0.00    +0.000 A 
ATOM     22  C   UNL     1     -47.465  -3.991 -26.065  0.00  0.00    +0.000 A 
ATOM     23  C   UNL     1     -47.347  -4.596 -24.807  0.00  0.00    +0.000 A 
ATOM     24  C   UNL     1     -47.220  -3.818 -23.652  0.00  0.00    +0.000 A 
ATOM     25 CL   UNL     1     -47.076  -4.632 -22.100  0.00  0.00    +0.000 Cl
ENDBRANCH  14  22
ENDBRANCH  13  15
ENDBRANCH  12  13
ENDBRANCH   1  12
BRANCH  11  26
ATOM     26  C   UNL     1     -46.888  -4.348 -33.350  0.00  0.00    +0.000 C 
BRANCH  26  27
ATOM     27  C   UNL     1     -45.711  -3.503 -32.971  0.00  0.00    +0.000 A 
ATOM     28  C   UNL     1     -45.923  -2.374 -32.150  0.00  0.00    +0.000 A 
ATOM     29  C   UNL     1     -44.853  -1.533 -31.794  0.00  0.00    +0.000 A 
ATOM     30  C   UNL     1     -43.591  -1.858 -32.284  0.00  0.00    +0.000 A 
ATOM     31  O   UNL     1     -42.395  -1.203 -32.076  0.00  0.00    +0.000 OA
ATOM     32  C   UNL     1     -41.371  -1.911 -32.788  0.00  0.00    +0.000 C 
ATOM     33  O   UNL     1     -42.047  -3.007 -33.420  0.00  0.00    +0.000 OA
ATOM     34  C   UNL     1     -43.385  -2.934 -33.086  0.00  0.00    +0.000 A 
ATOM     35  C   UNL     1     -44.420  -3.784 -33.465  0.00  0.00    +0.000 A 
ENDBRANCH  26  27
ENDBRANCH  11  26
TORSDOF 6
ENDMDL
MODEL 2
REMARK VINA RESULT:      -8.0      2.734      5.631
REMARK  Name = ZINC000002970981 ZINC02970981 ChemDiv-K284-1944 MCULE-9607552090 MolPort-007-910-227 PubChem-5199573
REMARK  6 active torsions:
REMARK  status: ('A' for Active; 'I' for Inactive)
REMARK    1  A    between atoms: C_1  and  S_12
REMARK    2  A    between atoms: N_11  and  C_26
REMARK    3  A    between atoms: S_12  and  C_13
REMARK    4  A    between atoms: C_13  and  C_15
REMARK    5  A    between atoms: N_14  and  C_22
REMARK    6  A    between atoms: C_26  and  C_27
REMARK                            x       y       z     vdW  Elec       q    Type
REMARK                         _______ _______ _______ _____ _____    ______ ____
ROOT
ATOM      1  C   UNL     1     -45.261  -4.960 -30.971  0.00  0.00    +0.000 A 
ATOM      2  N   UNL     1     -45.609  -3.654 -31.122  0.00  0.00    +0.000 NA
ATOM      3  C   UNL     1     -44.716  -2.731 -31.551  0.00  0.00    +0.000 A 
ATOM      4  C   UNL     1     -45.103  -1.396 -31.700  0.00  0.00    +0.000 A 
ATOM      5  C   UNL     1     -44.180  -0.446 -32.146  0.00  0.00    +0.000 A 
ATOM      6  C   UNL     1     -42.868  -0.829 -32.443  0.00  0.00    +0.000 A 
ATOM      7  C   UNL     1     -42.476  -2.162 -32.295  0.00  0.00    +0.000 A 
ATOM      8  C   UNL     1     -43.397  -3.121 -31.848  0.00  0.00    +0.000 A 
ATOM      9  C   UNL     1     -43.046  -4.466 -31.681  0.00  0.00    +0.000 A 
ATOM     10  O   UNL     1     -41.867  -4.843 -31.933  0.00  0.00    +0.000 OA
ATOM     11  N   UNL     1     -43.979  -5.369 -31.243  0.00  0.00    +0.000 N 
ENDROOT
BRANCH   1  12
ATOM     12  S   UNL     1     -46.524  -6.113 -30.422  0.00  0.00    +0.000 S 
BRANCH  12  13
ATOM     13  C   UNL     1     -47.361  -4.831 -29.444  0.00  0.00    +0.000 C 
BRANCH  13  15
ATOM     14  N   UNL     1     -47.756  -4.349 -27.005  0.00  0.00    +0.000 N 
ATOM     15  C   UNL     1     -46.916  -4.898 -28.028  0.00  0.00    +0.000 C 
ATOM     16  O   UNL     1     -45.823  -5.457 -27.747  0.00  0.00    +0.000 OA
ATOM     17  H   UNL     1     -48.614  -3.965 -27.299  0.00  0.00    +0.000 HD
BRANCH  14  22
ATOM     18  C   UNL     1     -46.654  -4.309 -21.381  0.00  0.00    +0.000 C 
ATOM     19  C   UNL     1     -46.940  -4.282 -22.843  0.00  0.00    +0.000 A 
ATOM     20  C   UNL     1     -47.037  -5.492 -23.535  0.00  0.00    +0.000 A 
ATOM     21  C   UNL     1     -47.306  -5.501 -24.906  0.00  0.00    +0.000 A 
ATOM     22  C   UNL     1     -47.478  -4.300 -25.599  0.00  0.00    +0.000 A 
ATOM     23  C   UNL     1     -47.384  -3.086 -24.905  0.00  0.00    +0.000 A 
ATOM     24  C   UNL     1     -47.115  -3.070 -23.533  0.00  0.00    +0.000 A 
ATOM     25 CL   UNL     1     -47.008  -1.518 -22.714  0.00  0.00    +0.000 Cl
ENDBRANCH  14  22
ENDBRANCH  13  15
ENDBRANCH  12  13
ENDBRANCH   1  12
BRANCH  11  26
ATOM     26  C   UNL     1     -43.582  -6.766 -31.044  0.00  0.00    +0.000 C 
BRANCH  26  27
ATOM     27  C   UNL     1     -43.281  -7.066 -29.608  0.00  0.00    +0.000 A 
ATOM     28  C   UNL     1     -43.853  -8.216 -29.021  0.00  0.00    +0.000 A 
ATOM     29  C   UNL     1     -43.624  -8.521 -27.666  0.00  0.00    +0.000 A 
ATOM     30  C   UNL     1     -42.820  -7.647 -26.939  0.00  0.00    +0.000 A 
ATOM     31  O   UNL     1     -42.446  -7.728 -25.614  0.00  0.00    +0.000 OA
ATOM     32  C   UNL     1     -41.618  -6.596 -25.316  0.00  0.00    +0.000 C 
ATOM     33  O   UNL     1     -41.540  -5.858 -26.544  0.00  0.00    +0.000 OA
ATOM     34  C   UNL     1     -42.281  -6.533 -27.495  0.00  0.00    +0.000 A 
ATOM     35  C   UNL     1     -42.491  -6.194 -28.828  0.00  0.00    +0.000 A 
ENDBRANCH  26  27
ENDBRANCH  11  26
TORSDOF 6
ENDMDL
MODEL 3
REMARK VINA RESULT:      -7.8      3.813      7.128
REMARK  Name = ZINC000002970981 ZINC02970981 ChemDiv-K284-1944 MCULE-9607552090 MolPort-007-910-227 PubChem-5199573
REMARK  6 active torsions:
REMARK  status: ('A' for Active; 'I' for Inactive)
REMARK    1  A    between atoms: C_1  and  S_12
REMARK    2  A    between atoms: N_11  and  C_26
REMARK    3  A    between atoms: S_12  and  C_13
REMARK    4  A    between atoms: C_13  and  C_15
REMARK    5  A    between atoms: N_14  and  C_22
REMARK    6  A    between atoms: C_26  and  C_27
REMARK                            x       y       z     vdW  Elec       q    Type
REMARK                         _______ _______ _______ _____ _____    ______ ____
ROOT
ATOM      1  C   UNL     1     -46.609  -6.827 -30.052  0.00  0.00    +0.000 A 
ATOM      2  N   UNL     1     -46.414  -7.166 -28.750  0.00  0.00    +0.000 NA
ATOM      3  C   UNL     1     -46.636  -6.281 -27.750  0.00  0.00    +0.000 A 
ATOM      4  C   UNL     1     -46.430  -6.659 -26.420  0.00  0.00    +0.000 A 
ATOM      5  C   UNL     1     -46.663  -5.744 -25.389  0.00  0.00    +0.000 A 
ATOM      6  C   UNL     1     -47.101  -4.450 -25.686  0.00  0.00    +0.000 A 
ATOM      7  C   UNL     1     -47.309  -4.067 -27.014  0.00  0.00    +0.000 A 
ATOM      8  C   UNL     1     -47.076  -4.980 -28.054  0.00  0.00    +0.000 A 
ATOM      9  C   UNL     1     -47.267  -4.637 -29.398  0.00  0.00    +0.000 A 
ATOM     10  O   UNL     1     -47.655  -3.474 -29.701  0.00  0.00    +0.000 OA
ATOM     11  N   UNL     1     -47.029  -5.563 -30.381  0.00  0.00    +0.000 N 
ENDROOT
BRANCH   1  12
ATOM     12  S   UNL     1     -46.311  -8.080 -31.305  0.00  0.00    +0.000 S 
BRANCH  12  13
ATOM     13  C   UNL     1     -47.307  -9.306 -30.409  0.00  0.00    +0.000 C 
BRANCH  13  15
ATOM     14  N   UNL     1     -47.014 -11.554 -29.315  0.00  0.00    +0.000 N 
ATOM     15  C   UNL     1     -46.425 -10.353 -29.828  0.00  0.00    +0.000 C 
ATOM     16  O   UNL     1     -45.178 -10.178 -29.821  0.00  0.00    +0.000 OA
ATOM     17  H   UNL     1     -47.992 -11.634 -29.393  0.00  0.00    +0.000 HD
BRANCH  14  22
ATOM     18  C   UNL     1     -44.201 -15.972 -26.988  0.00  0.00    +0.000 C 
ATOM     19  C   UNL     1     -44.949 -14.818 -27.560  0.00  0.00    +0.000 A 
ATOM     20  C   UNL     1     -44.708 -14.447 -28.886  0.00  0.00    +0.000 A 
ATOM     21  C   UNL     1     -45.395 -13.369 -29.451  0.00  0.00    +0.000 A 
ATOM     22  C   UNL     1     -46.327 -12.651 -28.698  0.00  0.00    +0.000 A 
ATOM     23  C   UNL     1     -46.570 -13.025 -27.369  0.00  0.00    +0.000 A 
ATOM     24  C   UNL     1     -45.887 -14.103 -26.796  0.00  0.00    +0.000 A 
ATOM     25 CL   UNL     1     -46.233 -14.526 -25.126  0.00  0.00    +0.000 Cl
ENDBRANCH  14  22
ENDBRANCH  13  15
ENDBRANCH  12  13
ENDBRANCH   1  12
BRANCH  11  26
ATOM     26  C   UNL     1     -47.202  -5.173 -31.784  0.00  0.00    +0.000 C 
BRANCH  26  27
ATOM     27  C   UNL     1     -46.091  -4.291 -32.264  0.00  0.00    +0.000 A 
ATOM     28  C   UNL     1     -46.410  -3.176 -33.070  0.00  0.00    +0.000 A 
ATOM     29  C   UNL     1     -45.397  -2.337 -33.571  0.00  0.00    +0.000 A 
ATOM     30  C   UNL     1     -44.082  -2.654 -33.242  0.00  0.00    +0.000 A 
ATOM     31  O   UNL     1     -42.926  -1.992 -33.601  0.00  0.00    +0.000 OA
ATOM     32  C   UNL     1     -41.815  -2.696 -33.027  0.00  0.00    +0.000 C 
ATOM     33  O   UNL     1     -42.399  -3.802 -32.323  0.00  0.00    +0.000 OA
ATOM     34  C   UNL     1     -43.770  -3.733 -32.480  0.00  0.00    +0.000 A 
ATOM     35  C   UNL     1     -44.743  -4.589 -31.974  0.00  0.00    +0.000 A 
ENDBRANCH  26  27
ENDBRANCH  11  26
TORSDOF 6
ENDMDL
