MODEL 1
REMARK VINA RESULT:      -6.2      0.000      0.000
REMARK  Name = ZINC000018195880 ZINC18195880
REMARK  2 active torsions:
REMARK  status: ('A' for Active; 'I' for Inactive)
REMARK    1  A    between atoms: C_6  and  C_21
REMARK    2  A    between atoms: C_11  and  O_12
REMARK                            x       y       z     vdW  Elec       q    Type
REMARK                         _______ _______ _______ _____ _____    ______ ____
ROOT
ATOM      1  C   UNL     1     -43.678  -0.579 -33.439  0.00  0.00    +0.000 C 
ATOM      2  C   UNL     1     -44.016  -1.846 -32.682  0.00  0.00    +0.000 C 
ATOM      3  C   UNL     1     -44.625  -2.851 -33.662  0.00  0.00    +0.000 C 
ATOM      4  C   UNL     1     -45.239  -4.054 -32.991  0.00  0.00    +0.000 C 
ATOM      5  C   UNL     1     -45.686  -4.003 -31.701  0.00  0.00    +0.000 C 
ATOM      6  C   UNL     1     -46.262  -5.232 -30.989  0.00  0.00    +0.000 C 
ATOM      7  C   UNL     1     -46.526  -6.353 -31.947  0.00  0.00    +0.000 A 
ATOM      8  C   UNL     1     -46.086  -6.352 -33.228  0.00  0.00    +0.000 A 
ATOM      9  N   UNL     1     -46.398  -7.500 -33.854  0.00  0.00    +0.000 N 
ATOM     10  N   UNL     1     -47.040  -8.262 -32.973  0.00  0.00    +0.000 NA
ATOM     11  C   UNL     1     -47.122  -7.582 -31.809  0.00  0.00    +0.000 A 
ATOM     12  N   UNL     1     -45.409  -5.238 -33.792  0.00  0.00    +0.000 N 
ATOM     13  C   UNL     1     -45.587  -2.732 -30.942  0.00  0.00    +0.000 C 
ATOM     14  O   UNL     1     -46.029  -2.657 -29.766  0.00  0.00    +0.000 OA
ATOM     15  C   UNL     1     -45.013  -1.502 -31.578  0.00  0.00    +0.000 C 
ATOM     16  C   UNL     1     -42.733  -2.402 -32.084  0.00  0.00    +0.000 C 
ATOM     17  H   UNL     1     -46.192  -7.732 -34.789  0.00  0.00    +0.000 HD
ATOM     18  H   UNL     1     -45.064  -5.275 -34.714  0.00  0.00    +0.000 HD
ENDROOT
BRANCH   6  19
ATOM     19  C   UNL     1     -45.359  -5.695 -29.881  0.00  0.00    +0.000 A 
ATOM     20  C   UNL     1     -45.858  -5.960 -28.599  0.00  0.00    +0.000 A 
ATOM     21  C   UNL     1     -44.982  -6.380 -27.596  0.00  0.00    +0.000 A 
ATOM     22  N   UNL     1     -43.657  -6.526 -27.867  0.00  0.00    +0.000 NA
ATOM     23  C   UNL     1     -43.150  -6.269 -29.103  0.00  0.00    +0.000 A 
ATOM     24  C   UNL     1     -43.994  -5.848 -30.133  0.00  0.00    +0.000 A 
ENDBRANCH   6  19
BRANCH  11  25
ATOM     25  O   UNL     1     -47.716  -8.077 -30.656  0.00  0.00    +0.000 OA
ATOM     26  H   UNL     1     -48.230  -7.512 -30.112  0.00  0.00    +0.000 HD
ENDBRANCH  11  25
TORSDOF 2
ENDMDL
MODEL 2
REMARK VINA RESULT:      -6.0     13.743     16.104
REMARK  Name = ZINC000018195880 ZINC18195880
REMARK  2 active torsions:
REMARK  status: ('A' for Active; 'I' for Inactive)
REMARK    1  A    between atoms: C_6  and  C_21
REMARK    2  A    between atoms: C_11  and  O_12
REMARK                            x       y       z     vdW  Elec       q    Type
REMARK                         _______ _______ _______ _____ _____    ______ ____
ROOT
ATOM      1  C   UNL     1     -46.207 -15.444 -18.184  0.00  0.00    +0.000 C 
ATOM      2  C   UNL     1     -45.560 -16.179 -19.339  0.00  0.00    +0.000 C 
ATOM      3  C   UNL     1     -46.002 -15.518 -20.647  0.00  0.00    +0.000 C 
ATOM      4  C   UNL     1     -45.636 -16.307 -21.877  0.00  0.00    +0.000 C 
ATOM      5  C   UNL     1     -45.441 -17.658 -21.829  0.00  0.00    +0.000 C 
ATOM      6  C   UNL     1     -45.015 -18.466 -23.061  0.00  0.00    +0.000 C 
ATOM      7  C   UNL     1     -45.127 -17.657 -24.318  0.00  0.00    +0.000 A 
ATOM      8  C   UNL     1     -45.346 -16.321 -24.321  0.00  0.00    +0.000 A 
ATOM      9  N   UNL     1     -45.339 -15.826 -25.571  0.00  0.00    +0.000 N 
ATOM     10  N   UNL     1     -45.102 -16.846 -26.392  0.00  0.00    +0.000 NA
ATOM     11  C   UNL     1     -44.967 -17.964 -25.645  0.00  0.00    +0.000 A 
ATOM     12  N   UNL     1     -45.577 -15.590 -23.125  0.00  0.00    +0.000 N 
ATOM     13  C   UNL     1     -45.612 -18.376 -20.542  0.00  0.00    +0.000 C 
ATOM     14  O   UNL     1     -45.474 -19.626 -20.487  0.00  0.00    +0.000 OA
ATOM     15  C   UNL     1     -46.007 -17.638 -19.299  0.00  0.00    +0.000 C 
ATOM     16  C   UNL     1     -44.050 -16.081 -19.181  0.00  0.00    +0.000 C 
ATOM     17  H   UNL     1     -45.481 -14.887 -25.831  0.00  0.00    +0.000 HD
ATOM     18  H   UNL     1     -45.696 -14.613 -23.148  0.00  0.00    +0.000 HD
ENDROOT
BRANCH   6  19
ATOM     19  C   UNL     1     -43.619 -19.000 -22.908  0.00  0.00    +0.000 A 
ATOM     20  C   UNL     1     -42.571 -18.183 -22.464  0.00  0.00    +0.000 A 
ATOM     21  C   UNL     1     -41.288 -18.719 -22.344  0.00  0.00    +0.000 A 
ATOM     22  N   UNL     1     -41.062 -20.023 -22.659  0.00  0.00    +0.000 NA
ATOM     23  C   UNL     1     -42.064 -20.834 -23.096  0.00  0.00    +0.000 A 
ATOM     24  C   UNL     1     -43.361 -20.335 -23.229  0.00  0.00    +0.000 A 
ENDBRANCH   6  19
BRANCH  11  25
ATOM     25  O   UNL     1     -44.697 -19.223 -26.167  0.00  0.00    +0.000 OA
ATOM     26  H   UNL     1     -44.319 -19.306 -27.020  0.00  0.00    +0.000 HD
ENDBRANCH  11  25
TORSDOF 2
ENDMDL
MODEL 3
REMARK VINA RESULT:      -5.9      2.317      5.749
REMARK  Name = ZINC000018195880 ZINC18195880
REMARK  2 active torsions:
REMARK  status: ('A' for Active; 'I' for Inactive)
REMARK    1  A    between atoms: C_6  and  C_21
REMARK    2  A    between atoms: C_11  and  O_12
REMARK                            x       y       z     vdW  Elec       q    Type
REMARK                         _______ _______ _______ _____ _____    ______ ____
ROOT
ATOM      1  C   UNL     1     -44.298  -8.002 -27.742  0.00  0.00    +0.000 C 
ATOM      2  C   UNL     1     -44.512  -7.146 -28.972  0.00  0.00    +0.000 C 
ATOM      3  C   UNL     1     -43.206  -6.416 -29.292  0.00  0.00    +0.000 C 
ATOM      4  C   UNL     1     -43.355  -5.339 -30.336  0.00  0.00    +0.000 C 
ATOM      5  C   UNL     1     -44.553  -4.724 -30.563  0.00  0.00    +0.000 C 
ATOM      6  C   UNL     1     -44.732  -3.666 -31.659  0.00  0.00    +0.000 C 
ATOM      7  C   UNL     1     -43.414  -3.215 -32.212  0.00  0.00    +0.000 A 
ATOM      8  C   UNL     1     -42.244  -3.840 -31.941  0.00  0.00    +0.000 A 
ATOM      9  N   UNL     1     -41.223  -3.280 -32.611  0.00  0.00    +0.000 N 
ATOM     10  N   UNL     1     -41.731  -2.286 -33.335  0.00  0.00    +0.000 NA
ATOM     11  C   UNL     1     -43.061  -2.236 -33.107  0.00  0.00    +0.000 A 
ATOM     12  N   UNL     1     -42.163  -4.929 -31.032  0.00  0.00    +0.000 N 
ATOM     13  C   UNL     1     -45.736  -5.103 -29.752  0.00  0.00    +0.000 C 
ATOM     14  O   UNL     1     -46.838  -4.519 -29.921  0.00  0.00    +0.000 OA
ATOM     15  C   UNL     1     -45.628  -6.146 -28.681  0.00  0.00    +0.000 C 
ATOM     16  C   UNL     1     -44.904  -8.057 -30.125  0.00  0.00    +0.000 C 
ATOM     17  H   UNL     1     -40.277  -3.553 -32.574  0.00  0.00    +0.000 HD
ATOM     18  H   UNL     1     -41.308  -5.393 -30.880  0.00  0.00    +0.000 HD
ENDROOT
BRANCH   6  19
ATOM     19  C   UNL     1     -45.617  -4.168 -32.763  0.00  0.00    +0.000 A 
ATOM     20  C   UNL     1     -46.761  -3.460 -33.158  0.00  0.00    +0.000 A 
ATOM     21  C   UNL     1     -47.560  -3.968 -34.184  0.00  0.00    +0.000 A 
ATOM     22  N   UNL     1     -47.229  -5.140 -34.789  0.00  0.00    +0.000 NA
ATOM     23  C   UNL     1     -46.126  -5.846 -34.419  0.00  0.00    +0.000 A 
ATOM     24  C   UNL     1     -45.301  -5.372 -33.397  0.00  0.00    +0.000 A 
ENDBRANCH   6  19
BRANCH  11  25
ATOM     25  O   UNL     1     -43.923  -1.328 -33.707  0.00  0.00    +0.000 OA
ATOM     26  H   UNL     1     -43.894  -1.196 -34.635  0.00  0.00    +0.000 HD
ENDBRANCH  11  25
TORSDOF 2
ENDMDL
