MODEL 1
REMARK VINA RESULT:      -6.5      0.000      0.000
REMARK  Name = ZINC000031807936
REMARK  2 active torsions:
REMARK  status: ('A' for Active; 'I' for Inactive)
REMARK    1  A    between atoms: C_1  and  C_27
REMARK    2  A    between atoms: C_24  and  O_31
REMARK                            x       y       z     vdW  Elec       q    Type
REMARK                         _______ _______ _______ _____ _____    ______ ____
ROOT
ATOM      1  C   UNL     1     -45.482  -6.264 -28.132  0.00  0.00    +0.000 C 
ATOM      2  S   UNL     1     -46.932  -5.182 -28.335  0.00  0.00    +0.000 S 
ATOM      3  C   UNL     1     -47.326  -5.853 -29.966  0.00  0.00    +0.000 C 
ATOM      4  C   UNL     1     -46.684  -5.027 -31.017  0.00  0.00    +0.000 C 
ATOM      5  O   UNL     1     -47.420  -4.450 -31.857  0.00  0.00    +0.000 OA
ATOM      6  N   UNL     1     -45.265  -4.889 -31.131  0.00  0.00    +0.000 N 
ATOM      7  C   UNL     1     -44.212  -5.335 -30.260  0.00  0.00    +0.000 A 
ATOM      8  C   UNL     1     -44.302  -5.930 -29.002  0.00  0.00    +0.000 A 
ATOM      9  C   UNL     1     -42.986  -6.206 -28.672  0.00  0.00    +0.000 A 
ATOM     10  C   UNL     1     -42.512  -6.863 -27.422  0.00  0.00    +0.000 C 
ATOM     11  N   UNL     1     -42.161  -5.805 -29.655  0.00  0.00    +0.000 NA
ATOM     12  N   UNL     1     -42.906  -5.262 -30.604  0.00  0.00    +0.000 N 
ATOM     13  H   UNL     1     -44.961  -4.411 -31.936  0.00  0.00    +0.000 HD
ATOM     14  C   UNL     1     -42.349  -4.751 -31.825  0.00  0.00    +0.000 A 
ATOM     15  N   UNL     1     -41.321  -5.411 -32.439  0.00  0.00    +0.000 NA
ATOM     16  C   UNL     1     -40.748  -4.933 -33.589  0.00  0.00    +0.000 A 
ATOM     17  N   UNL     1     -41.184  -3.764 -34.148  0.00  0.00    +0.000 NA
ATOM     18  C   UNL     1     -42.193  -3.102 -33.533  0.00  0.00    +0.000 A 
ATOM     19  N   UNL     1     -42.710  -1.922 -33.896  0.00  0.00    +0.000 N 
ATOM     20  C   UNL     1     -43.627  -1.691 -32.917  0.00  0.00    +0.000 A 
ATOM     21  N   UNL     1     -43.687  -2.671 -31.975  0.00  0.00    +0.000 NA
ATOM     22  C   UNL     1     -42.774  -3.554 -32.402  0.00  0.00    +0.000 A 
ATOM     23  H   UNL     1     -42.484  -1.363 -34.674  0.00  0.00    +0.000 HD
ENDROOT
BRANCH   1  27
ATOM     24  C   UNL     1     -46.500 -10.452 -27.960  0.00  0.00    +0.000 A 
ATOM     25  C   UNL     1     -45.701  -9.973 -29.003  0.00  0.00    +0.000 A 
ATOM     26  C   UNL     1     -45.362  -8.618 -29.068  0.00  0.00    +0.000 A 
ATOM     27  C   UNL     1     -45.818  -7.728 -28.083  0.00  0.00    +0.000 A 
ATOM     28  C   UNL     1     -46.621  -8.205 -27.043  0.00  0.00    +0.000 A 
ATOM     29  C   UNL     1     -46.960  -9.559 -26.979  0.00  0.00    +0.000 A 
BRANCH  24  31
ATOM     30  C   UNL     1     -47.083 -12.570 -29.096  0.00  0.00    +0.000 C 
ATOM     31  O   UNL     1     -46.821 -11.811 -27.923  0.00  0.00    +0.000 OA
ENDBRANCH  24  31
ENDBRANCH   1  27
TORSDOF 2
ENDMDL
MODEL 2
REMARK VINA RESULT:      -6.5      3.113      7.573
REMARK  Name = ZINC000031807936
REMARK  2 active torsions:
REMARK  status: ('A' for Active; 'I' for Inactive)
REMARK    1  A    between atoms: C_1  and  C_27
REMARK    2  A    between atoms: C_24  and  O_31
REMARK                            x       y       z     vdW  Elec       q    Type
REMARK                         _______ _______ _______ _____ _____    ______ ____
ROOT
ATOM      1  C   UNL     1     -45.163  -4.059 -33.322  0.00  0.00    +0.000 C 
ATOM      2  S   UNL     1     -46.874  -3.565 -32.942  0.00  0.00    +0.000 S 
ATOM      3  C   UNL     1     -46.511  -3.296 -31.192  0.00  0.00    +0.000 C 
ATOM      4  C   UNL     1     -46.801  -4.530 -30.425  0.00  0.00    +0.000 C 
ATOM      5  O   UNL     1     -47.676  -4.483 -29.523  0.00  0.00    +0.000 OA
ATOM      6  N   UNL     1     -46.103  -5.759 -30.646  0.00  0.00    +0.000 N 
ATOM      7  C   UNL     1     -45.156  -6.123 -31.664  0.00  0.00    +0.000 A 
ATOM      8  C   UNL     1     -44.746  -5.400 -32.785  0.00  0.00    +0.000 A 
ATOM      9  C   UNL     1     -43.776  -6.204 -33.361  0.00  0.00    +0.000 A 
ATOM     10  C   UNL     1     -42.994  -5.895 -34.589  0.00  0.00    +0.000 C 
ATOM     11  N   UNL     1     -43.614  -7.330 -32.644  0.00  0.00    +0.000 NA
ATOM     12  N   UNL     1     -44.463  -7.284 -31.630  0.00  0.00    +0.000 N 
ATOM     13  H   UNL     1     -46.304  -6.471 -29.996  0.00  0.00    +0.000 HD
ATOM     14  C   UNL     1     -44.539  -8.320 -30.639  0.00  0.00    +0.000 A 
ATOM     15  N   UNL     1     -43.398  -8.923 -30.189  0.00  0.00    +0.000 NA
ATOM     16  C   UNL     1     -43.437  -9.935 -29.265  0.00  0.00    +0.000 A 
ATOM     17  N   UNL     1     -44.634 -10.382 -28.777  0.00  0.00    +0.000 NA
ATOM     18  C   UNL     1     -45.766  -9.795 -29.233  0.00  0.00    +0.000 A 
ATOM     19  N   UNL     1     -47.022 -10.134 -28.918  0.00  0.00    +0.000 N 
ATOM     20  C   UNL     1     -47.756  -9.288 -29.690  0.00  0.00    +0.000 A 
ATOM     21  N   UNL     1     -47.007  -8.455 -30.463  0.00  0.00    +0.000 NA
ATOM     22  C   UNL     1     -45.751  -8.796 -30.140  0.00  0.00    +0.000 A 
ATOM     23  H   UNL     1     -47.335 -10.822 -28.287  0.00  0.00    +0.000 HD
ENDROOT
BRANCH   1  27
ATOM     24  C   UNL     1     -42.312  -0.882 -32.712  0.00  0.00    +0.000 A 
ATOM     25  C   UNL     1     -42.052  -2.156 -32.199  0.00  0.00    +0.000 A 
ATOM     26  C   UNL     1     -42.968  -3.195 -32.393  0.00  0.00    +0.000 A 
ATOM     27  C   UNL     1     -44.153  -2.967 -33.108  0.00  0.00    +0.000 A 
ATOM     28  C   UNL     1     -44.416  -1.692 -33.616  0.00  0.00    +0.000 A 
ATOM     29  C   UNL     1     -43.501  -0.653 -33.422  0.00  0.00    +0.000 A 
BRANCH  24  31
ATOM     30  C   UNL     1     -40.389   0.071 -31.481  0.00  0.00    +0.000 C 
ATOM     31  O   UNL     1     -41.377   0.135 -32.501  0.00  0.00    +0.000 OA
ENDBRANCH  24  31
ENDBRANCH   1  27
TORSDOF 2
ENDMDL
MODEL 3
REMARK VINA RESULT:      -6.4      9.377     13.733
REMARK  Name = ZINC000031807936
REMARK  2 active torsions:
REMARK  status: ('A' for Active; 'I' for Inactive)
REMARK    1  A    between atoms: C_1  and  C_27
REMARK    2  A    between atoms: C_24  and  O_31
REMARK                            x       y       z     vdW  Elec       q    Type
REMARK                         _______ _______ _______ _____ _____    ______ ____
ROOT
ATOM      1  C   UNL     1     -43.564 -15.701 -25.804  0.00  0.00    +0.000 C 
ATOM      2  S   UNL     1     -43.292 -17.451 -26.228  0.00  0.00    +0.000 S 
ATOM      3  C   UNL     1     -45.058 -17.834 -26.191  0.00  0.00    +0.000 C 
ATOM      4  C   UNL     1     -45.438 -18.321 -24.843  0.00  0.00    +0.000 C 
ATOM      5  O   UNL     1     -45.904 -19.483 -24.735  0.00  0.00    +0.000 OA
ATOM      6  N   UNL     1     -45.326 -17.510 -23.670  0.00  0.00    +0.000 N 
ATOM      7  C   UNL     1     -44.734 -16.213 -23.486  0.00  0.00    +0.000 A 
ATOM      8  C   UNL     1     -44.004 -15.441 -24.390  0.00  0.00    +0.000 A 
ATOM      9  C   UNL     1     -43.751 -14.270 -23.696  0.00  0.00    +0.000 A 
ATOM     10  C   UNL     1     -43.008 -13.086 -24.211  0.00  0.00    +0.000 C 
ATOM     11  N   UNL     1     -44.284 -14.330 -22.463  0.00  0.00    +0.000 NA
ATOM     12  N   UNL     1     -44.861 -15.514 -22.335  0.00  0.00    +0.000 N 
ATOM     13  H   UNL     1     -45.718 -17.904 -22.858  0.00  0.00    +0.000 HD
ATOM     14  C   UNL     1     -45.561 -15.906 -21.145  0.00  0.00    +0.000 A 
ATOM     15  N   UNL     1     -46.332 -15.000 -20.472  0.00  0.00    +0.000 NA
ATOM     16  C   UNL     1     -46.988 -15.335 -19.316  0.00  0.00    +0.000 A 
ATOM     17  N   UNL     1     -46.874 -16.594 -18.793  0.00  0.00    +0.000 NA
ATOM     18  C   UNL     1     -46.098 -17.488 -19.451  0.00  0.00    +0.000 A 
ATOM     19  N   UNL     1     -45.821 -18.739 -19.064  0.00  0.00    +0.000 N 
ATOM     20  C   UNL     1     -44.962 -19.161 -20.032  0.00  0.00    +0.000 A 
ATOM     21  N   UNL     1     -44.700 -18.225 -20.984  0.00  0.00    +0.000 NA
ATOM     22  C   UNL     1     -45.445 -17.182 -20.591  0.00  0.00    +0.000 A 
ATOM     23  H   UNL     1     -46.154 -19.230 -18.278  0.00  0.00    +0.000 HD
ENDROOT
BRANCH   1  27
ATOM     24  C   UNL     1     -45.758 -13.546 -28.828  0.00  0.00    +0.000 A 
ATOM     25  C   UNL     1     -46.263 -13.626 -27.527  0.00  0.00    +0.000 A 
ATOM     26  C   UNL     1     -45.560 -14.319 -26.538  0.00  0.00    +0.000 A 
ATOM     27  C   UNL     1     -44.338 -14.937 -26.842  0.00  0.00    +0.000 A 
ATOM     28  C   UNL     1     -43.834 -14.862 -28.144  0.00  0.00    +0.000 A 
ATOM     29  C   UNL     1     -44.538 -14.170 -29.133  0.00  0.00    +0.000 A 
BRANCH  24  31
ATOM     30  C   UNL     1     -46.709 -11.444 -29.720  0.00  0.00    +0.000 C 
ATOM     31  O   UNL     1     -46.485 -12.845 -29.794  0.00  0.00    +0.000 OA
ENDBRANCH  24  31
ENDBRANCH   1  27
TORSDOF 2
ENDMDL
