MODEL 1
REMARK VINA RESULT:      -6.6      0.000      0.000
REMARK  Name = ZINC000065283276 ZINC65283276 ChemDiv-T480-0419 MolPort-010-948-687 PubChem-53190182
REMARK  2 active torsions:
REMARK  status: ('A' for Active; 'I' for Inactive)
REMARK    1  A    between atoms: C_8  and  C_17
REMARK    2  A    between atoms: N_19  and  C_21
REMARK                            x       y       z     vdW  Elec       q    Type
REMARK                         _______ _______ _______ _____ _____    ______ ____
ROOT
ATOM      1  C   UNL     1     -43.258 -18.612 -18.712  0.00  0.00    +0.000 C 
ATOM      2  C   UNL     1     -42.871 -19.263 -19.995  0.00  0.00    +0.000 A 
ATOM      3  C   UNL     1     -43.518 -19.192 -21.226  0.00  0.00    +0.000 A 
ATOM      4  C   UNL     1     -42.900 -19.971 -22.214  0.00  0.00    +0.000 A 
ATOM      5  C   UNL     1     -41.763 -20.665 -21.815  0.00  0.00    +0.000 A 
ATOM      6  S   UNL     1     -41.551 -20.286 -20.184  0.00  0.00    +0.000 S 
ATOM      7  N   UNL     1     -43.408 -20.032 -23.468  0.00  0.00    +0.000 NA
ATOM      8  C   UNL     1     -44.528 -19.326 -23.788  0.00  0.00    +0.000 A 
ATOM      9  N   UNL     1     -45.152 -18.569 -22.838  0.00  0.00    +0.000 NA
ATOM     10  C   UNL     1     -44.675 -18.474 -21.567  0.00  0.00    +0.000 A 
ATOM     11  N   UNL     1     -45.356 -17.648 -20.624  0.00  0.00    +0.000 N 
ATOM     12  C   UNL     1     -46.416 -18.247 -19.807  0.00  0.00    +0.000 C 
ATOM     13  C   UNL     1     -47.208 -17.178 -19.056  0.00  0.00    +0.000 C 
ATOM     14  O   UNL     1     -46.336 -16.216 -18.531  0.00  0.00    +0.000 OA
ATOM     15  C   UNL     1     -45.928 -15.455 -19.634  0.00  0.00    +0.000 C 
ATOM     16  C   UNL     1     -44.932 -16.251 -20.476  0.00  0.00    +0.000 C 
ENDROOT
BRANCH   8  17
ATOM     17  C   UNL     1     -45.095 -19.404 -25.148  0.00  0.00    +0.000 C 
ATOM     18  O   UNL     1     -45.881 -20.346 -25.431  0.00  0.00    +0.000 OA
ATOM     19  N   UNL     1     -44.732 -18.474 -26.177  0.00  0.00    +0.000 N 
ATOM     20  H   UNL     1     -44.654 -18.828 -27.093  0.00  0.00    +0.000 HD
BRANCH  19  21
ATOM     21  C   UNL     1     -44.474 -17.076 -25.995  0.00  0.00    +0.000 A 
ATOM     22  C   UNL     1     -43.186 -16.585 -26.239  0.00  0.00    +0.000 A 
ATOM     23  C   UNL     1     -42.910 -15.221 -26.106  0.00  0.00    +0.000 A 
ATOM     24  C   UNL     1     -43.929 -14.340 -25.735  0.00  0.00    +0.000 A 
ATOM     25  O   UNL     1     -43.682 -12.969 -25.615  0.00  0.00    +0.000 OA
ATOM     26  C   UNL     1     -44.762 -12.037 -25.523  0.00  0.00    +0.000 C 
ATOM     27  C   UNL     1     -45.881 -12.608 -24.650  0.00  0.00    +0.000 C 
ATOM     28  O   UNL     1     -46.214 -13.931 -25.076  0.00  0.00    +0.000 OA
ATOM     29  C   UNL     1     -45.218 -14.825 -25.479  0.00  0.00    +0.000 A 
ATOM     30  C   UNL     1     -45.495 -16.185 -25.628  0.00  0.00    +0.000 A 
ENDBRANCH  19  21
ENDBRANCH   8  17
TORSDOF 2
ENDMDL
MODEL 2
REMARK VINA RESULT:      -6.4     12.114     16.614
REMARK  Name = ZINC000065283276 ZINC65283276 ChemDiv-T480-0419 MolPort-010-948-687 PubChem-53190182
REMARK  2 active torsions:
REMARK  status: ('A' for Active; 'I' for Inactive)
REMARK    1  A    between atoms: C_8  and  C_17
REMARK    2  A    between atoms: N_19  and  C_21
REMARK                            x       y       z     vdW  Elec       q    Type
REMARK                         _______ _______ _______ _____ _____    ______ ____
ROOT
ATOM      1  C   UNL     1     -40.358  -3.204 -33.309  0.00  0.00    +0.000 C 
ATOM      2  C   UNL     1     -41.614  -2.474 -32.982  0.00  0.00    +0.000 A 
ATOM      3  C   UNL     1     -42.919  -2.960 -32.988  0.00  0.00    +0.000 A 
ATOM      4  C   UNL     1     -43.869  -1.979 -32.670  0.00  0.00    +0.000 A 
ATOM      5  C   UNL     1     -43.364  -0.713 -32.399  0.00  0.00    +0.000 A 
ATOM      6  S   UNL     1     -41.691  -0.845 -32.575  0.00  0.00    +0.000 S 
ATOM      7  N   UNL     1     -45.190  -2.275 -32.647  0.00  0.00    +0.000 NA
ATOM      8  C   UNL     1     -45.614  -3.539 -32.926  0.00  0.00    +0.000 A 
ATOM      9  N   UNL     1     -44.706  -4.507 -33.248  0.00  0.00    +0.000 NA
ATOM     10  C   UNL     1     -43.368  -4.257 -33.280  0.00  0.00    +0.000 A 
ATOM     11  N   UNL     1     -42.466  -5.315 -33.599  0.00  0.00    +0.000 N 
ATOM     12  C   UNL     1     -42.104  -5.524 -35.004  0.00  0.00    +0.000 C 
ATOM     13  C   UNL     1     -41.354  -6.842 -35.194  0.00  0.00    +0.000 C 
ATOM     14  O   UNL     1     -40.420  -7.014 -34.164  0.00  0.00    +0.000 OA
ATOM     15  C   UNL     1     -41.179  -7.350 -33.036  0.00  0.00    +0.000 C 
ATOM     16  C   UNL     1     -41.900  -6.113 -32.505  0.00  0.00    +0.000 C 
ENDROOT
BRANCH   8  17
ATOM     17  C   UNL     1     -47.054  -3.861 -32.920  0.00  0.00    +0.000 C 
ATOM     18  O   UNL     1     -47.699  -3.806 -33.999  0.00  0.00    +0.000 OA
ATOM     19  N   UNL     1     -47.756  -4.177 -31.711  0.00  0.00    +0.000 N 
ATOM     20  H   UNL     1     -48.682  -3.852 -31.633  0.00  0.00    +0.000 HD
BRANCH  19  21
ATOM     21  C   UNL     1     -47.234  -4.927 -30.605  0.00  0.00    +0.000 A 
ATOM     22  C   UNL     1     -47.081  -4.292 -29.367  0.00  0.00    +0.000 A 
ATOM     23  C   UNL     1     -46.608  -5.004 -28.260  0.00  0.00    +0.000 A 
ATOM     24  C   UNL     1     -46.296  -6.359 -28.388  0.00  0.00    +0.000 A 
ATOM     25  O   UNL     1     -45.842  -7.098 -27.291  0.00  0.00    +0.000 OA
ATOM     26  C   UNL     1     -45.798  -8.525 -27.337  0.00  0.00    +0.000 C 
ATOM     27  C   UNL     1     -45.332  -8.996 -28.717  0.00  0.00    +0.000 C 
ATOM     28  O   UNL     1     -46.087  -8.346 -29.742  0.00  0.00    +0.000 OA
ATOM     29  C   UNL     1     -46.438  -6.999 -29.627  0.00  0.00    +0.000 A 
ATOM     30  C   UNL     1     -46.924  -6.290 -30.728  0.00  0.00    +0.000 A 
ENDBRANCH  19  21
ENDBRANCH   8  17
TORSDOF 2
ENDMDL
MODEL 3
REMARK VINA RESULT:      -6.3      2.893      7.122
REMARK  Name = ZINC000065283276 ZINC65283276 ChemDiv-T480-0419 MolPort-010-948-687 PubChem-53190182
REMARK  2 active torsions:
REMARK  status: ('A' for Active; 'I' for Inactive)
REMARK    1  A    between atoms: C_8  and  C_17
REMARK    2  A    between atoms: N_19  and  C_21
REMARK                            x       y       z     vdW  Elec       q    Type
REMARK                         _______ _______ _______ _____ _____    ______ ____
ROOT
ATOM      1  C   UNL     1     -43.036 -12.304 -26.508  0.00  0.00    +0.000 C 
ATOM      2  C   UNL     1     -42.426 -13.573 -26.022  0.00  0.00    +0.000 A 
ATOM      3  C   UNL     1     -42.871 -14.877 -26.228  0.00  0.00    +0.000 A 
ATOM      4  C   UNL     1     -42.074 -15.833 -25.584  0.00  0.00    +0.000 A 
ATOM      5  C   UNL     1     -40.991 -15.337 -24.867  0.00  0.00    +0.000 A 
ATOM      6  S   UNL     1     -41.057 -13.660 -25.052  0.00  0.00    +0.000 S 
ATOM      7  N   UNL     1     -42.372 -17.152 -25.664  0.00  0.00    +0.000 NA
ATOM      8  C   UNL     1     -43.452 -17.567 -26.383  0.00  0.00    +0.000 A 
ATOM      9  N   UNL     1     -44.247 -16.651 -27.011  0.00  0.00    +0.000 NA
ATOM     10  C   UNL     1     -43.983 -15.316 -26.961  0.00  0.00    +0.000 A 
ATOM     11  N   UNL     1     -44.836 -14.408 -27.657  0.00  0.00    +0.000 N 
ATOM     12  C   UNL     1     -45.990 -13.850 -26.946  0.00  0.00    +0.000 C 
ATOM     13  C   UNL     1     -46.931 -13.120 -27.904  0.00  0.00    +0.000 C 
ATOM     14  O   UNL     1     -46.190 -12.353 -28.812  0.00  0.00    +0.000 OA
ATOM     15  C   UNL     1     -45.638 -13.279 -29.706  0.00  0.00    +0.000 C 
ATOM     16  C   UNL     1     -44.492 -14.034 -29.034  0.00  0.00    +0.000 C 
ENDROOT
BRANCH   8  17
ATOM     17  C   UNL     1     -43.791 -19.001 -26.458  0.00  0.00    +0.000 C 
ATOM     18  O   UNL     1     -43.434 -19.663 -27.467  0.00  0.00    +0.000 OA
ATOM     19  N   UNL     1     -44.568 -19.652 -25.444  0.00  0.00    +0.000 N 
ATOM     20  H   UNL     1     -45.203 -20.343 -25.741  0.00  0.00    +0.000 HD
BRANCH  19  21
ATOM     21  C   UNL     1     -44.503 -19.390 -24.036  0.00  0.00    +0.000 A 
ATOM     22  C   UNL     1     -45.461 -18.548 -23.457  0.00  0.00    +0.000 A 
ATOM     23  C   UNL     1     -45.447 -18.301 -22.081  0.00  0.00    +0.000 A 
ATOM     24  C   UNL     1     -44.476 -18.904 -21.277  0.00  0.00    +0.000 A 
ATOM     25  O   UNL     1     -44.455 -18.689 -19.896  0.00  0.00    +0.000 OA
ATOM     26  C   UNL     1     -43.664 -19.515 -19.039  0.00  0.00    +0.000 C 
ATOM     27  C   UNL     1     -42.321 -19.832 -19.701  0.00  0.00    +0.000 C 
ATOM     28  O   UNL     1     -42.527 -20.306 -21.034  0.00  0.00    +0.000 OA
ATOM     29  C   UNL     1     -43.509 -19.740 -21.851  0.00  0.00    +0.000 A 
ATOM     30  C   UNL     1     -43.534 -19.998 -23.223  0.00  0.00    +0.000 A 
ENDBRANCH  19  21
ENDBRANCH   8  17
TORSDOF 2
ENDMDL
