MODEL 1
REMARK VINA RESULT:      -6.1      0.000      0.000
REMARK  Name = ZINC000003831423 ZINC03831423 PubChem-7048776
REMARK  9 active torsions:
REMARK  status: ('A' for Active; 'I' for Inactive)
REMARK    1  A    between atoms: N_9  and  C_20
REMARK    2  A    between atoms: C_20  and  C_21
REMARK    3  A    between atoms: C_21  and  O_22
REMARK    4  A    between atoms: C_21  and  C_24
REMARK    5  A    between atoms: C_24  and  O_25
REMARK    6  A    between atoms: C_24  and  C_27
REMARK    7  A    between atoms: C_27  and  O_28
REMARK    8  A    between atoms: C_27  and  C_30
REMARK    9  A    between atoms: C_30  and  O_31
REMARK                            x       y       z     vdW  Elec       q    Type
REMARK                         _______ _______ _______ _____ _____    ______ ____
ROOT
ATOM      1  C   UNL     1     -47.025  -3.680 -23.606  0.00  0.00    +0.000 C 
ATOM      2  C   UNL     1     -47.040  -4.198 -25.003  0.00  0.00    +0.000 A 
ATOM      3  C   UNL     1     -46.714  -5.538 -25.226  0.00  0.00    +0.000 A 
ATOM      4  C   UNL     1     -46.716  -6.067 -26.518  0.00  0.00    +0.000 A 
ATOM      5  C   UNL     1     -47.053  -5.241 -27.624  0.00  0.00    +0.000 A 
ATOM      6  C   UNL     1     -47.376  -3.894 -27.387  0.00  0.00    +0.000 A 
ATOM      7  C   UNL     1     -47.372  -3.371 -26.091  0.00  0.00    +0.000 A 
ATOM      8  C   UNL     1     -47.726  -1.935 -25.899  0.00  0.00    +0.000 C 
ATOM      9  N   UNL     1     -47.058  -5.757 -28.899  0.00  0.00    +0.000 N 
ATOM     10  C   UNL     1     -46.734  -7.068 -29.101  0.00  0.00    +0.000 A 
ATOM     11  N   UNL     1     -46.719  -7.621 -30.343  0.00  0.00    +0.000 NA
ATOM     12  C   UNL     1     -46.395  -8.930 -30.522  0.00  0.00    +0.000 A 
ATOM     13  O   UNL     1     -46.390  -9.417 -31.682  0.00  0.00    +0.000 OA
ATOM     14  N   UNL     1     -46.076  -9.719 -29.458  0.00  0.00    +0.000 N 
ATOM     15  C   UNL     1     -46.064  -9.246 -28.184  0.00  0.00    +0.000 A 
ATOM     16  O   UNL     1     -45.761 -10.013 -27.233  0.00  0.00    +0.000 OA
ATOM     17  C   UNL     1     -46.388  -7.911 -27.946  0.00  0.00    +0.000 A 
ATOM     18  N   UNL     1     -46.395  -7.372 -26.704  0.00  0.00    +0.000 NA
ATOM     19  H   UNL     1     -45.845 -10.662 -29.617  0.00  0.00    +0.000 HD
ENDROOT
BRANCH   9  20
ATOM     20  C   UNL     1     -47.418  -4.920 -30.047  0.00  0.00    +0.000 C 
BRANCH  20  21
ATOM     21  C   UNL     1     -46.201  -4.161 -30.559  0.00  0.00    +0.000 C 
BRANCH  21  22
ATOM     22  O   UNL     1     -46.481  -2.794 -30.638  0.00  0.00    +0.000 OA
ATOM     23  H   UNL     1     -47.098  -2.548 -29.930  0.00  0.00    +0.000 HD
ENDBRANCH  21  22
BRANCH  21  24
ATOM     24  C   UNL     1     -45.773  -4.704 -31.922  0.00  0.00    +0.000 C 
BRANCH  24  25
ATOM     25  O   UNL     1     -44.981  -5.845 -31.758  0.00  0.00    +0.000 OA
ATOM     26  H   UNL     1     -45.025  -6.387 -32.561  0.00  0.00    +0.000 HD
ENDBRANCH  24  25
BRANCH  24  27
ATOM     27  C   UNL     1     -46.984  -5.023 -32.794  0.00  0.00    +0.000 C 
BRANCH  27  28
ATOM     28  O   UNL     1     -46.930  -6.354 -33.215  0.00  0.00    +0.000 OA
ATOM     29  H   UNL     1     -47.142  -6.402 -34.160  0.00  0.00    +0.000 HD
ENDBRANCH  27  28
BRANCH  27  30
ATOM     30  C   UNL     1     -47.012  -4.114 -34.014  0.00  0.00    +0.000 C 
BRANCH  30  31
ATOM     31  O   UNL     1     -47.754  -2.968 -33.735  0.00  0.00    +0.000 OA
ATOM     32  H   UNL     1     -47.254  -2.398 -33.129  0.00  0.00    +0.000 HD
ENDBRANCH  30  31
ENDBRANCH  27  30
ENDBRANCH  24  27
ENDBRANCH  21  24
ENDBRANCH  20  21
ENDBRANCH   9  20
TORSDOF 9
ENDMDL
MODEL 2
REMARK VINA RESULT:      -5.8     11.351     15.278
REMARK  Name = ZINC000003831423 ZINC03831423 PubChem-7048776
REMARK  9 active torsions:
REMARK  status: ('A' for Active; 'I' for Inactive)
REMARK    1  A    between atoms: N_9  and  C_20
REMARK    2  A    between atoms: C_20  and  C_21
REMARK    3  A    between atoms: C_21  and  O_22
REMARK    4  A    between atoms: C_21  and  C_24
REMARK    5  A    between atoms: C_24  and  O_25
REMARK    6  A    between atoms: C_24  and  C_27
REMARK    7  A    between atoms: C_27  and  O_28
REMARK    8  A    between atoms: C_27  and  C_30
REMARK    9  A    between atoms: C_30  and  O_31
REMARK                            x       y       z     vdW  Elec       q    Type
REMARK                         _______ _______ _______ _____ _____    ______ ____
ROOT
ATOM      1  C   UNL     1     -46.588 -12.514 -19.370  0.00  0.00    +0.000 C 
ATOM      2  C   UNL     1     -46.315 -13.880 -19.898  0.00  0.00    +0.000 A 
ATOM      3  C   UNL     1     -46.173 -14.050 -21.278  0.00  0.00    +0.000 A 
ATOM      4  C   UNL     1     -45.915 -15.313 -21.817  0.00  0.00    +0.000 A 
ATOM      5  C   UNL     1     -45.792 -16.441 -20.961  0.00  0.00    +0.000 A 
ATOM      6  C   UNL     1     -45.939 -16.255 -19.576  0.00  0.00    +0.000 A 
ATOM      7  C   UNL     1     -46.197 -14.990 -19.043  0.00  0.00    +0.000 A 
ATOM      8  C   UNL     1     -46.341 -14.853 -17.564  0.00  0.00    +0.000 C 
ATOM      9  N   UNL     1     -45.536 -17.685 -21.487  0.00  0.00    +0.000 N 
ATOM     10  C   UNL     1     -45.405 -17.837 -22.837  0.00  0.00    +0.000 A 
ATOM     11  N   UNL     1     -45.158 -19.048 -23.404  0.00  0.00    +0.000 NA
ATOM     12  C   UNL     1     -45.028 -19.176 -24.751  0.00  0.00    +0.000 A 
ATOM     13  O   UNL     1     -44.799 -20.309 -25.250  0.00  0.00    +0.000 OA
ATOM     14  N   UNL     1     -45.144 -18.092 -25.568  0.00  0.00    +0.000 N 
ATOM     15  C   UNL     1     -45.392 -16.846 -25.085  0.00  0.00    +0.000 A 
ATOM     16  O   UNL     1     -45.492 -15.874 -25.879  0.00  0.00    +0.000 OA
ATOM     17  C   UNL     1     -45.534 -16.660 -23.711  0.00  0.00    +0.000 A 
ATOM     18  N   UNL     1     -45.784 -15.448 -23.160  0.00  0.00    +0.000 NA
ATOM     19  H   UNL     1     -45.046 -18.214 -26.540  0.00  0.00    +0.000 HD
ENDROOT
BRANCH   9  20
ATOM     20  C   UNL     1     -45.392 -18.855 -20.614  0.00  0.00    +0.000 C 
BRANCH  20  21
ATOM     21  C   UNL     1     -43.926 -19.108 -20.296  0.00  0.00    +0.000 C 
BRANCH  21  22
ATOM     22  O   UNL     1     -43.372 -19.988 -21.231  0.00  0.00    +0.000 OA
ATOM     23  H   UNL     1     -42.434 -19.777 -21.359  0.00  0.00    +0.000 HD
ENDBRANCH  21  22
BRANCH  21  24
ATOM     24  C   UNL     1     -43.779 -19.663 -18.880  0.00  0.00    +0.000 C 
BRANCH  24  25
ATOM     25  O   UNL     1     -44.907 -20.414 -18.538  0.00  0.00    +0.000 OA
ATOM     26  H   UNL     1     -45.638 -20.192 -19.136  0.00  0.00    +0.000 HD
ENDBRANCH  24  25
BRANCH  24  27
ATOM     27  C   UNL     1     -42.519 -20.515 -18.750  0.00  0.00    +0.000 C 
BRANCH  27  28
ATOM     28  O   UNL     1     -42.857 -21.870 -18.766  0.00  0.00    +0.000 OA
ATOM     29  H   UNL     1     -43.387 -22.080 -17.981  0.00  0.00    +0.000 HD
ENDBRANCH  27  28
BRANCH  27  30
ATOM     30  C   UNL     1     -41.796 -20.196 -17.449  0.00  0.00    +0.000 C 
BRANCH  30  31
ATOM     31  O   UNL     1     -42.621 -19.434 -16.623  0.00  0.00    +0.000 OA
ATOM     32  H   UNL     1     -43.514 -19.814 -16.617  0.00  0.00    +0.000 HD
ENDBRANCH  30  31
ENDBRANCH  27  30
ENDBRANCH  24  27
ENDBRANCH  21  24
ENDBRANCH  20  21
ENDBRANCH   9  20
TORSDOF 9
ENDMDL
MODEL 3
REMARK VINA RESULT:      -5.7      1.888      2.572
REMARK  Name = ZINC000003831423 ZINC03831423 PubChem-7048776
REMARK  9 active torsions:
REMARK  status: ('A' for Active; 'I' for Inactive)
REMARK    1  A    between atoms: N_9  and  C_20
REMARK    2  A    between atoms: C_20  and  C_21
REMARK    3  A    between atoms: C_21  and  O_22
REMARK    4  A    between atoms: C_21  and  C_24
REMARK    5  A    between atoms: C_24  and  O_25
REMARK    6  A    between atoms: C_24  and  C_27
REMARK    7  A    between atoms: C_27  and  O_28
REMARK    8  A    between atoms: C_27  and  C_30
REMARK    9  A    between atoms: C_30  and  O_31
REMARK                            x       y       z     vdW  Elec       q    Type
REMARK                         _______ _______ _______ _____ _____    ______ ____
ROOT
ATOM      1  C   UNL     1     -46.511  -5.710 -24.835  0.00  0.00    +0.000 C 
ATOM      2  C   UNL     1     -46.659  -5.737 -26.318  0.00  0.00    +0.000 A 
ATOM      3  C   UNL     1     -46.368  -6.921 -27.000  0.00  0.00    +0.000 A 
ATOM      4  C   UNL     1     -46.494  -6.993 -28.389  0.00  0.00    +0.000 A 
ATOM      5  C   UNL     1     -46.923  -5.854 -29.124  0.00  0.00    +0.000 A 
ATOM      6  C   UNL     1     -47.210  -4.669 -28.425  0.00  0.00    +0.000 A 
ATOM      7  C   UNL     1     -47.082  -4.605 -27.036  0.00  0.00    +0.000 A 
ATOM      8  C   UNL     1     -47.403  -3.321 -26.348  0.00  0.00    +0.000 C 
ATOM      9  N   UNL     1     -47.050  -5.921 -30.492  0.00  0.00    +0.000 N 
ATOM     10  C   UNL     1     -46.758  -7.083 -31.145  0.00  0.00    +0.000 A 
ATOM     11  N   UNL     1     -46.863  -7.194 -32.496  0.00  0.00    +0.000 NA
ATOM     12  C   UNL     1     -46.569  -8.362 -33.126  0.00  0.00    +0.000 A 
ATOM     13  O   UNL     1     -46.675  -8.439 -34.378  0.00  0.00    +0.000 OA
ATOM     14  N   UNL     1     -46.161  -9.452 -32.418  0.00  0.00    +0.000 N 
ATOM     15  C   UNL     1     -46.027  -9.427 -31.065  0.00  0.00    +0.000 A 
ATOM     16  O   UNL     1     -45.646 -10.459 -30.453  0.00  0.00    +0.000 OA
ATOM     17  C   UNL     1     -46.315  -8.253 -30.370  0.00  0.00    +0.000 A 
ATOM     18  N   UNL     1     -46.203  -8.156 -29.024  0.00  0.00    +0.000 NA
ATOM     19  H   UNL     1     -45.954 -10.285 -32.900  0.00  0.00    +0.000 HD
ENDROOT
BRANCH   9  20
ATOM     20  C   UNL     1     -47.506  -4.758 -31.261  0.00  0.00    +0.000 C 
BRANCH  20  21
ATOM     21  C   UNL     1     -46.349  -3.806 -31.528  0.00  0.00    +0.000 C 
BRANCH  21  22
ATOM     22  O   UNL     1     -46.680  -2.513 -31.114  0.00  0.00    +0.000 OA
ATOM     23  H   UNL     1     -45.868  -1.999 -30.975  0.00  0.00    +0.000 HD
ENDBRANCH  21  22
BRANCH  21  24
ATOM     24  C   UNL     1     -45.983  -3.820 -33.012  0.00  0.00    +0.000 C 
BRANCH  24  25
ATOM     25  O   UNL     1     -46.850  -2.989 -33.729  0.00  0.00    +0.000 OA
ATOM     26  H   UNL     1     -47.280  -2.367 -33.121  0.00  0.00    +0.000 HD
ENDBRANCH  24  25
BRANCH  24  27
ATOM     27  C   UNL     1     -44.536  -3.385 -33.228  0.00  0.00    +0.000 C 
BRANCH  27  28
ATOM     28  O   UNL     1     -43.845  -3.414 -32.015  0.00  0.00    +0.000 OA
ATOM     29  H   UNL     1     -44.102  -4.206 -31.516  0.00  0.00    +0.000 HD
ENDBRANCH  27  28
BRANCH  27  30
ATOM     30  C   UNL     1     -44.487  -1.974 -33.796  0.00  0.00    +0.000 C 
BRANCH  30  31
ATOM     31  O   UNL     1     -43.161  -1.564 -33.933  0.00  0.00    +0.000 OA
ATOM     32  H   UNL     1     -42.820  -1.277 -33.072  0.00  0.00    +0.000 HD
ENDBRANCH  30  31
ENDBRANCH  27  30
ENDBRANCH  24  27
ENDBRANCH  21  24
ENDBRANCH  20  21
ENDBRANCH   9  20
TORSDOF 9
ENDMDL
