MODEL 1
REMARK VINA RESULT:      -6.6      0.000      0.000
REMARK  Name = ZINC000031807721
REMARK  2 active torsions:
REMARK  status: ('A' for Active; 'I' for Inactive)
REMARK    1  A    between atoms: C_7  and  C_24
REMARK    2  A    between atoms: C_27  and  O_28
REMARK                            x       y       z     vdW  Elec       q    Type
REMARK                         _______ _______ _______ _____ _____    ______ ____
ROOT
ATOM      1  C   UNL     1     -47.420  -4.481 -34.442  0.00  0.00    +0.000 C 
ATOM      2  C   UNL     1     -46.671  -5.629 -33.859  0.00  0.00    +0.000 A 
ATOM      3  N   UNL     1     -46.571  -6.829 -34.456  0.00  0.00    +0.000 NA
ATOM      4  N   UNL     1     -45.835  -7.605 -33.676  0.00  0.00    +0.000 N 
ATOM      5  C   UNL     1     -45.428  -6.907 -32.591  0.00  0.00    +0.000 A 
ATOM      6  C   UNL     1     -45.968  -5.624 -32.666  0.00  0.00    +0.000 A 
ATOM      7  C   UNL     1     -45.818  -4.424 -31.772  0.00  0.00    +0.000 C 
ATOM      8  S   UNL     1     -45.612  -4.805 -30.005  0.00  0.00    +0.000 S 
ATOM      9  C   UNL     1     -43.917  -5.393 -30.240  0.00  0.00    +0.000 C 
ATOM     10  C   UNL     1     -43.917  -6.859 -30.469  0.00  0.00    +0.000 C 
ATOM     11  O   UNL     1     -43.298  -7.590 -29.654  0.00  0.00    +0.000 OA
ATOM     12  N   UNL     1     -44.553  -7.467 -31.596  0.00  0.00    +0.000 N 
ATOM     13  H   UNL     1     -44.363  -8.426 -31.709  0.00  0.00    +0.000 HD
ATOM     14  C   UNL     1     -45.500  -8.955 -34.026  0.00  0.00    +0.000 A 
ATOM     15  N   UNL     1     -45.199  -9.273 -35.320  0.00  0.00    +0.000 NA
ATOM     16  C   UNL     1     -44.904 -10.559 -35.694  0.00  0.00    +0.000 A 
ATOM     17  N   UNL     1     -44.916 -11.569 -34.772  0.00  0.00    +0.000 NA
ATOM     18  C   UNL     1     -45.228 -11.259 -33.491  0.00  0.00    +0.000 A 
ATOM     19  N   UNL     1     -45.346 -12.114 -32.469  0.00  0.00    +0.000 N 
ATOM     20  C   UNL     1     -45.732 -11.300 -31.449  0.00  0.00    +0.000 A 
ATOM     21  N   UNL     1     -45.858  -9.992 -31.804  0.00  0.00    +0.000 NA
ATOM     22  C   UNL     1     -45.520 -10.000 -33.100  0.00  0.00    +0.000 A 
ATOM     23  H   UNL     1     -45.193 -13.086 -32.458  0.00  0.00    +0.000 HD
ENDROOT
BRANCH   7  24
ATOM     24  C   UNL     1     -44.867  -3.376 -32.282  0.00  0.00    +0.000 A 
ATOM     25  C   UNL     1     -44.938  -2.081 -31.757  0.00  0.00    +0.000 A 
ATOM     26  C   UNL     1     -44.060  -1.090 -32.204  0.00  0.00    +0.000 A 
ATOM     27  C   UNL     1     -43.105  -1.389 -33.179  0.00  0.00    +0.000 A 
ATOM     28  C   UNL     1     -43.025  -2.681 -33.706  0.00  0.00    +0.000 A 
ATOM     29  C   UNL     1     -43.903  -3.672 -33.260  0.00  0.00    +0.000 A 
BRANCH  27  30
ATOM     30  O   UNL     1     -42.234  -0.404 -33.623  0.00  0.00    +0.000 OA
ATOM     31  H   UNL     1     -41.620  -0.019 -33.030  0.00  0.00    +0.000 HD
ENDBRANCH  27  30
ENDBRANCH   7  24
TORSDOF 2
ENDMDL
MODEL 2
REMARK VINA RESULT:      -6.5      2.895      3.527
REMARK  Name = ZINC000031807721
REMARK  2 active torsions:
REMARK  status: ('A' for Active; 'I' for Inactive)
REMARK    1  A    between atoms: C_7  and  C_24
REMARK    2  A    between atoms: C_27  and  O_28
REMARK                            x       y       z     vdW  Elec       q    Type
REMARK                         _______ _______ _______ _____ _____    ______ ____
ROOT
ATOM      1  C   UNL     1     -42.909  -5.827 -34.728  0.00  0.00    +0.000 C 
ATOM      2  C   UNL     1     -43.696  -6.084 -33.489  0.00  0.00    +0.000 A 
ATOM      3  N   UNL     1     -43.575  -7.202 -32.753  0.00  0.00    +0.000 NA
ATOM      4  N   UNL     1     -44.406  -7.099 -31.728  0.00  0.00    +0.000 N 
ATOM      5  C   UNL     1     -45.043  -5.906 -31.774  0.00  0.00    +0.000 A 
ATOM      6  C   UNL     1     -44.621  -5.227 -32.917  0.00  0.00    +0.000 A 
ATOM      7  C   UNL     1     -44.956  -3.861 -33.447  0.00  0.00    +0.000 C 
ATOM      8  S   UNL     1     -46.649  -3.296 -33.095  0.00  0.00    +0.000 S 
ATOM      9  C   UNL     1     -46.286  -3.012 -31.346  0.00  0.00    +0.000 C 
ATOM     10  C   UNL     1     -46.617  -4.224 -30.557  0.00  0.00    +0.000 C 
ATOM     11  O   UNL     1     -47.489  -4.129 -29.656  0.00  0.00    +0.000 OA
ATOM     12  N   UNL     1     -45.959  -5.479 -30.752  0.00  0.00    +0.000 N 
ATOM     13  H   UNL     1     -46.168  -6.163 -30.075  0.00  0.00    +0.000 HD
ATOM     14  C   UNL     1     -44.513  -8.110 -30.716  0.00  0.00    +0.000 A 
ATOM     15  N   UNL     1     -43.394  -8.756 -30.272  0.00  0.00    +0.000 NA
ATOM     16  C   UNL     1     -43.464  -9.748 -29.328  0.00  0.00    +0.000 A 
ATOM     17  N   UNL     1     -44.672 -10.129 -28.812  0.00  0.00    +0.000 NA
ATOM     18  C   UNL     1     -45.784  -9.500 -29.260  0.00  0.00    +0.000 A 
ATOM     19  N   UNL     1     -47.048  -9.773 -28.918  0.00  0.00    +0.000 N 
ATOM     20  C   UNL     1     -47.756  -8.908 -29.695  0.00  0.00    +0.000 A 
ATOM     21  N   UNL     1     -46.981  -8.127 -30.497  0.00  0.00    +0.000 NA
ATOM     22  C   UNL     1     -45.739  -8.520 -30.187  0.00  0.00    +0.000 A 
ATOM     23  H   UNL     1     -47.382 -10.432 -28.268  0.00  0.00    +0.000 HD
ENDROOT
BRANCH   7  24
ATOM     24  C   UNL     1     -43.903  -2.815 -33.198  0.00  0.00    +0.000 A 
ATOM     25  C   UNL     1     -44.116  -1.513 -33.664  0.00  0.00    +0.000 A 
ATOM     26  C   UNL     1     -43.159  -0.519 -33.438  0.00  0.00    +0.000 A 
ATOM     27  C   UNL     1     -41.986  -0.821 -32.742  0.00  0.00    +0.000 A 
ATOM     28  C   UNL     1     -41.769  -2.118 -32.270  0.00  0.00    +0.000 A 
ATOM     29  C   UNL     1     -42.723  -3.113 -32.496  0.00  0.00    +0.000 A 
BRANCH  27  30
ATOM     30  O   UNL     1     -41.037   0.167 -32.519  0.00  0.00    +0.000 OA
ATOM     31  H   UNL     1     -40.182   0.088 -32.892  0.00  0.00    +0.000 HD
ENDBRANCH  27  30
ENDBRANCH   7  24
TORSDOF 2
ENDMDL
MODEL 3
REMARK VINA RESULT:      -6.5      4.070      7.333
REMARK  Name = ZINC000031807721
REMARK  2 active torsions:
REMARK  status: ('A' for Active; 'I' for Inactive)
REMARK    1  A    between atoms: C_7  and  C_24
REMARK    2  A    between atoms: C_27  and  O_28
REMARK                            x       y       z     vdW  Elec       q    Type
REMARK                         _______ _______ _______ _____ _____    ______ ____
ROOT
ATOM      1  C   UNL     1     -42.505  -6.753 -27.503  0.00  0.00    +0.000 C 
ATOM      2  C   UNL     1     -43.015  -6.097 -28.739  0.00  0.00    +0.000 A 
ATOM      3  N   UNL     1     -42.225  -5.729 -29.762  0.00  0.00    +0.000 NA
ATOM      4  N   UNL     1     -42.998  -5.189 -30.691  0.00  0.00    +0.000 N 
ATOM      5  C   UNL     1     -44.291  -5.233 -30.293  0.00  0.00    +0.000 A 
ATOM      6  C   UNL     1     -44.338  -5.799 -29.019  0.00  0.00    +0.000 A 
ATOM      7  C   UNL     1     -45.494  -6.132 -28.117  0.00  0.00    +0.000 C 
ATOM      8  S   UNL     1     -46.915  -5.003 -28.244  0.00  0.00    +0.000 S 
ATOM      9  C   UNL     1     -47.408  -5.665 -29.854  0.00  0.00    +0.000 C 
ATOM     10  C   UNL     1     -46.788  -4.868 -30.941  0.00  0.00    +0.000 C 
ATOM     11  O   UNL     1     -47.543  -4.274 -31.752  0.00  0.00    +0.000 OA
ATOM     12  N   UNL     1     -45.372  -4.783 -31.126  0.00  0.00    +0.000 N 
ATOM     13  H   UNL     1     -45.092  -4.342 -31.961  0.00  0.00    +0.000 HD
ATOM     14  C   UNL     1     -42.483  -4.712 -31.942  0.00  0.00    +0.000 A 
ATOM     15  N   UNL     1     -41.493  -5.401 -32.584  0.00  0.00    +0.000 NA
ATOM     16  C   UNL     1     -40.958  -4.957 -33.765  0.00  0.00    +0.000 A 
ATOM     17  N   UNL     1     -41.397  -3.792 -34.331  0.00  0.00    +0.000 NA
ATOM     18  C   UNL     1     -42.369  -3.100 -33.690  0.00  0.00    +0.000 A 
ATOM     19  N   UNL     1     -42.881  -1.919 -34.056  0.00  0.00    +0.000 N 
ATOM     20  C   UNL     1     -43.754  -1.652 -33.046  0.00  0.00    +0.000 A 
ATOM     21  N   UNL     1     -43.791  -2.612 -32.081  0.00  0.00    +0.000 NA
ATOM     22  C   UNL     1     -42.911  -3.518 -32.527  0.00  0.00    +0.000 A 
ATOM     23  H   UNL     1     -42.678  -1.380 -34.854  0.00  0.00    +0.000 HD
ENDROOT
BRANCH   7  24
ATOM     24  C   UNL     1     -45.874  -7.587 -28.095  0.00  0.00    +0.000 A 
ATOM     25  C   UNL     1     -46.632  -8.075 -27.025  0.00  0.00    +0.000 A 
ATOM     26  C   UNL     1     -47.009  -9.421 -26.984  0.00  0.00    +0.000 A 
ATOM     27  C   UNL     1     -46.632 -10.285 -28.015  0.00  0.00    +0.000 A 
ATOM     28  C   UNL     1     -45.879  -9.805 -29.089  0.00  0.00    +0.000 A 
ATOM     29  C   UNL     1     -45.501  -8.460 -29.131  0.00  0.00    +0.000 A 
BRANCH  27  30
ATOM     30  O   UNL     1     -47.006 -11.621 -27.972  0.00  0.00    +0.000 OA
ATOM     31  H   UNL     1     -46.414 -12.263 -27.635  0.00  0.00    +0.000 HD
ENDBRANCH  27  30
ENDBRANCH   7  24
TORSDOF 2
ENDMDL
