MODEL 1
REMARK VINA RESULT:      -8.1      0.000      0.000
REMARK  Name = ZINC000023126404 MCULE-3872663354
REMARK  6 active torsions:
REMARK  status: ('A' for Active; 'I' for Inactive)
REMARK    1  A    between atoms: C_4  and  S_25
REMARK    2  A    between atoms: C_10  and  C_16
REMARK    3  A    between atoms: N_18  and  C_20
REMARK    4  A    between atoms: S_25  and  C_26
REMARK    5  A    between atoms: C_26  and  C_27
REMARK    6  A    between atoms: N_29  and  C_31
REMARK                            x       y       z     vdW  Elec       q    Type
REMARK                         _______ _______ _______ _____ _____    ______ ____
ROOT
ATOM      1  C   UNL     1     -47.219  -3.675 -25.924  0.00  0.00    +0.000 A 
ATOM      2  N   UNL     1     -47.419  -2.791 -26.920  0.00  0.00    +0.000 NA
ATOM      3  N   UNL     1     -47.313  -3.481 -28.051  0.00  0.00    +0.000 NA
ATOM      4  C   UNL     1     -47.056  -4.765 -27.720  0.00  0.00    +0.000 A 
ATOM      5  N   UNL     1     -46.993  -4.913 -26.380  0.00  0.00    +0.000 N 
ATOM      6  C   UNL     1     -46.771  -5.969 -25.552  0.00  0.00    +0.000 A 
ATOM      7  C   UNL     1     -46.764  -5.723 -24.160  0.00  0.00    +0.000 A 
ATOM      8  C   UNL     1     -46.536  -6.785 -23.273  0.00  0.00    +0.000 A 
ATOM      9  C   UNL     1     -46.329  -8.077 -23.763  0.00  0.00    +0.000 A 
ATOM     10  C   UNL     1     -46.351  -8.329 -25.142  0.00  0.00    +0.000 A 
ATOM     11  C   UNL     1     -46.570  -7.268 -26.031  0.00  0.00    +0.000 A 
ATOM     12  C   UNL     1     -46.995  -4.406 -23.697  0.00  0.00    +0.000 A 
ATOM     13  O   UNL     1     -46.990  -4.165 -22.457  0.00  0.00    +0.000 OA
ATOM     14  N   UNL     1     -47.226  -3.391 -24.593  0.00  0.00    +0.000 N 
ATOM     15  C   UNL     1     -47.468  -2.028 -24.135  0.00  0.00    +0.000 C 
ENDROOT
BRANCH  10  16
ATOM     16  C   UNL     1     -46.159  -9.696 -25.654  0.00  0.00    +0.000 C 
ATOM     17  O   UNL     1     -46.207 -10.678 -24.863  0.00  0.00    +0.000 OA
ATOM     18  N   UNL     1     -45.938  -9.914 -27.052  0.00  0.00    +0.000 N 
ATOM     19  H   UNL     1     -45.934  -9.137 -27.657  0.00  0.00    +0.000 HD
BRANCH  18  20
ATOM     20  C   UNL     1     -45.718 -11.239 -27.610  0.00  0.00    +0.000 C 
ATOM     21  C   UNL     1     -45.155 -11.124 -29.019  0.00  0.00    +0.000 C 
ATOM     22  C   UNL     1     -46.216 -11.666 -29.953  0.00  0.00    +0.000 C 
ATOM     23  C   UNL     1     -47.068 -12.578 -29.105  0.00  0.00    +0.000 C 
ATOM     24  C   UNL     1     -47.043 -11.967 -27.724  0.00  0.00    +0.000 C 
ENDBRANCH  18  20
ENDBRANCH  10  16
BRANCH   4  25
ATOM     25  S   UNL     1     -46.770  -6.051 -28.935  0.00  0.00    +0.000 S 
BRANCH  25  26
ATOM     26  C   UNL     1     -47.541  -5.080 -30.270  0.00  0.00    +0.000 C 
BRANCH  26  27
ATOM     27  C   UNL     1     -46.534  -4.425 -31.163  0.00  0.00    +0.000 C 
ATOM     28  O   UNL     1     -46.312  -4.934 -32.292  0.00  0.00    +0.000 OA
ATOM     29  N   UNL     1     -45.851  -3.230 -30.749  0.00  0.00    +0.000 N 
ATOM     30  H   UNL     1     -46.125  -2.843 -29.887  0.00  0.00    +0.000 HD
BRANCH  29  31
ATOM     31  C   UNL     1     -44.814  -2.543 -31.461  0.00  0.00    +0.000 A 
ATOM     32  C   UNL     1     -44.969  -1.177 -31.721  0.00  0.00    +0.000 A 
ATOM     33  C   UNL     1     -43.968  -0.467 -32.391  0.00  0.00    +0.000 A 
ATOM     34  C   UNL     1     -42.803  -1.120 -32.801  0.00  0.00    +0.000 A 
ATOM     35  C   UNL     1     -42.639  -2.484 -32.543  0.00  0.00    +0.000 A 
ATOM     36  C   UNL     1     -43.641  -3.193 -31.875  0.00  0.00    +0.000 A 
ATOM     37  F   UNL     1     -41.831  -0.431 -33.446  0.00  0.00    +0.000 F 
ENDBRANCH  29  31
ENDBRANCH  26  27
ENDBRANCH  25  26
ENDBRANCH   4  25
TORSDOF 6
ENDMDL
MODEL 2
REMARK VINA RESULT:      -7.7      3.574      5.740
REMARK  Name = ZINC000023126404 MCULE-3872663354
REMARK  6 active torsions:
REMARK  status: ('A' for Active; 'I' for Inactive)
REMARK    1  A    between atoms: C_4  and  S_25
REMARK    2  A    between atoms: C_10  and  C_16
REMARK    3  A    between atoms: N_18  and  C_20
REMARK    4  A    between atoms: S_25  and  C_26
REMARK    5  A    between atoms: C_26  and  C_27
REMARK    6  A    between atoms: N_29  and  C_31
REMARK                            x       y       z     vdW  Elec       q    Type
REMARK                         _______ _______ _______ _____ _____    ______ ____
ROOT
ATOM      1  C   UNL     1     -47.307  -4.533 -21.708  0.00  0.00    +0.000 A 
ATOM      2  N   UNL     1     -47.330  -5.497 -20.767  0.00  0.00    +0.000 NA
ATOM      3  N   UNL     1     -47.383  -6.651 -21.424  0.00  0.00    +0.000 NA
ATOM      4  C   UNL     1     -47.388  -6.367 -22.744  0.00  0.00    +0.000 A 
ATOM      5  N   UNL     1     -47.338  -5.034 -22.949  0.00  0.00    +0.000 N 
ATOM      6  C   UNL     1     -47.316  -4.245 -24.057  0.00  0.00    +0.000 A 
ATOM      7  C   UNL     1     -47.278  -2.845 -23.867  0.00  0.00    +0.000 A 
ATOM      8  C   UNL     1     -47.258  -1.998 -24.983  0.00  0.00    +0.000 A 
ATOM      9  C   UNL     1     -47.262  -2.536 -26.273  0.00  0.00    +0.000 A 
ATOM     10  C   UNL     1     -47.284  -3.924 -26.467  0.00  0.00    +0.000 A 
ATOM     11  C   UNL     1     -47.313  -4.773 -25.353  0.00  0.00    +0.000 A 
ATOM     12  C   UNL     1     -47.256  -2.334 -22.547  0.00  0.00    +0.000 A 
ATOM     13  O   UNL     1     -47.224  -1.086 -22.356  0.00  0.00    +0.000 OA
ATOM     14  N   UNL     1     -47.266  -3.193 -21.476  0.00  0.00    +0.000 N 
ATOM     15  C   UNL     1     -47.240  -2.686 -20.109  0.00  0.00    +0.000 C 
ENDROOT
BRANCH  10  16
ATOM     16  C   UNL     1     -47.262  -4.488 -27.827  0.00  0.00    +0.000 C 
ATOM     17  O   UNL     1     -47.428  -3.734 -28.826  0.00  0.00    +0.000 OA
ATOM     18  N   UNL     1     -47.033  -5.888 -28.019  0.00  0.00    +0.000 N 
ATOM     19  H   UNL     1     -46.876  -6.455 -27.229  0.00  0.00    +0.000 HD
BRANCH  18  20
ATOM     20  C   UNL     1     -47.024  -6.505 -29.336  0.00  0.00    +0.000 C 
ATOM     21  C   UNL     1     -47.427  -7.967 -29.229  0.00  0.00    +0.000 C 
ATOM     22  C   UNL     1     -46.206  -8.780 -29.606  0.00  0.00    +0.000 C 
ATOM     23  C   UNL     1     -45.356  -7.859 -30.447  0.00  0.00    +0.000 C 
ATOM     24  C   UNL     1     -45.617  -6.475 -29.900  0.00  0.00    +0.000 C 
ENDBRANCH  18  20
ENDBRANCH  10  16
BRANCH   4  25
ATOM     25  S   UNL     1     -47.517  -7.623 -24.016  0.00  0.00    +0.000 S 
BRANCH  25  26
ATOM     26  C   UNL     1     -45.716  -7.901 -24.044  0.00  0.00    +0.000 C 
BRANCH  26  27
ATOM     27  C   UNL     1     -45.147  -7.858 -25.428  0.00  0.00    +0.000 C 
ATOM     28  O   UNL     1     -45.923  -8.042 -26.401  0.00  0.00    +0.000 OA
ATOM     29  N   UNL     1     -43.751  -7.594 -25.641  0.00  0.00    +0.000 N 
ATOM     30  H   UNL     1     -43.216  -7.385 -24.842  0.00  0.00    +0.000 HD
BRANCH  29  31
ATOM     31  C   UNL     1     -43.058  -7.600 -26.895  0.00  0.00    +0.000 A 
ATOM     32  C   UNL     1     -42.706  -8.830 -27.463  0.00  0.00    +0.000 A 
ATOM     33  C   UNL     1     -42.051  -8.878 -28.697  0.00  0.00    +0.000 A 
ATOM     34  C   UNL     1     -41.746  -7.693 -29.373  0.00  0.00    +0.000 A 
ATOM     35  C   UNL     1     -42.095  -6.460 -28.814  0.00  0.00    +0.000 A 
ATOM     36  C   UNL     1     -42.749  -6.414 -27.580  0.00  0.00    +0.000 A 
ATOM     37  F   UNL     1     -41.115  -7.739 -30.571  0.00  0.00    +0.000 F 
ENDBRANCH  29  31
ENDBRANCH  26  27
ENDBRANCH  25  26
ENDBRANCH   4  25
TORSDOF 6
ENDMDL
MODEL 3
REMARK VINA RESULT:      -7.7      4.207      7.833
REMARK  Name = ZINC000023126404 MCULE-3872663354
REMARK  6 active torsions:
REMARK  status: ('A' for Active; 'I' for Inactive)
REMARK    1  A    between atoms: C_4  and  S_25
REMARK    2  A    between atoms: C_10  and  C_16
REMARK    3  A    between atoms: N_18  and  C_20
REMARK    4  A    between atoms: S_25  and  C_26
REMARK    5  A    between atoms: C_26  and  C_27
REMARK    6  A    between atoms: N_29  and  C_31
REMARK                            x       y       z     vdW  Elec       q    Type
REMARK                         _______ _______ _______ _____ _____    ______ ____
ROOT
ATOM      1  C   UNL     1     -45.189  -3.215 -31.641  0.00  0.00    +0.000 A 
ATOM      2  N   UNL     1     -45.877  -2.584 -30.670  0.00  0.00    +0.000 NA
ATOM      3  N   UNL     1     -46.746  -3.473 -30.199  0.00  0.00    +0.000 NA
ATOM      4  C   UNL     1     -46.568  -4.621 -30.887  0.00  0.00    +0.000 A 
ATOM      5  N   UNL     1     -45.587  -4.484 -31.805  0.00  0.00    +0.000 N 
ATOM      6  C   UNL     1     -45.028  -5.313 -32.726  0.00  0.00    +0.000 A 
ATOM      7  C   UNL     1     -44.002  -4.790 -33.546  0.00  0.00    +0.000 A 
ATOM      8  C   UNL     1     -43.402  -5.612 -34.509  0.00  0.00    +0.000 A 
ATOM      9  C   UNL     1     -43.808  -6.942 -34.648  0.00  0.00    +0.000 A 
ATOM     10  C   UNL     1     -44.815  -7.471 -33.828  0.00  0.00    +0.000 A 
ATOM     11  C   UNL     1     -45.422  -6.648 -32.869  0.00  0.00    +0.000 A 
ATOM     12  C   UNL     1     -43.602  -3.444 -33.365  0.00  0.00    +0.000 A 
ATOM     13  O   UNL     1     -42.688  -2.958 -34.088  0.00  0.00    +0.000 OA
ATOM     14  N   UNL     1     -44.203  -2.670 -32.404  0.00  0.00    +0.000 N 
ATOM     15  C   UNL     1     -43.803  -1.282 -32.201  0.00  0.00    +0.000 C 
ENDROOT
BRANCH  10  16
ATOM     16  C   UNL     1     -45.222  -8.879 -33.960  0.00  0.00    +0.000 C 
ATOM     17  O   UNL     1     -45.592  -9.527 -32.942  0.00  0.00    +0.000 OA
ATOM     18  N   UNL     1     -45.215  -9.510 -35.245  0.00  0.00    +0.000 N 
ATOM     19  H   UNL     1     -44.950  -8.979 -36.032  0.00  0.00    +0.000 HD
BRANCH  18  20
ATOM     20  C   UNL     1     -45.583 -10.904 -35.433  0.00  0.00    +0.000 C 
ATOM     21  C   UNL     1     -44.668 -11.551 -36.462  0.00  0.00    +0.000 C 
ATOM     22  C   UNL     1     -45.533 -11.883 -37.659  0.00  0.00    +0.000 C 
ATOM     23  C   UNL     1     -46.940 -11.977 -37.123  0.00  0.00    +0.000 C 
ATOM     24  C   UNL     1     -46.993 -10.986 -35.984  0.00  0.00    +0.000 C 
ENDBRANCH  18  20
ENDBRANCH  10  16
BRANCH   4  25
ATOM     25  S   UNL     1     -47.572  -6.082 -30.632  0.00  0.00    +0.000 S 
BRANCH  25  26
ATOM     26  C   UNL     1     -46.398  -6.783 -29.428  0.00  0.00    +0.000 C 
BRANCH  26  27
ATOM     27  C   UNL     1     -46.190  -5.896 -28.240  0.00  0.00    +0.000 C 
ATOM     28  O   UNL     1     -45.025  -5.770 -27.782  0.00  0.00    +0.000 OA
ATOM     29  N   UNL     1     -47.292  -5.188 -27.649  0.00  0.00    +0.000 N 
ATOM     30  H   UNL     1     -48.162  -5.272 -28.101  0.00  0.00    +0.000 HD
BRANCH  29  31
ATOM     31  C   UNL     1     -47.256  -4.372 -26.472  0.00  0.00    +0.000 A 
ATOM     32  C   UNL     1     -47.304  -2.981 -26.616  0.00  0.00    +0.000 A 
ATOM     33  C   UNL     1     -47.296  -2.152 -25.490  0.00  0.00    +0.000 A 
ATOM     34  C   UNL     1     -47.245  -2.712 -24.210  0.00  0.00    +0.000 A 
ATOM     35  C   UNL     1     -47.199  -4.101 -24.057  0.00  0.00    +0.000 A 
ATOM     36  C   UNL     1     -47.205  -4.928 -25.183  0.00  0.00    +0.000 A 
ATOM     37  F   UNL     1     -47.242  -1.910 -23.119  0.00  0.00    +0.000 F 
ENDBRANCH  29  31
ENDBRANCH  26  27
ENDBRANCH  25  26
ENDBRANCH   4  25
TORSDOF 6
ENDMDL
