MODEL 1
REMARK VINA RESULT:      -6.8      0.000      0.000
REMARK  Name = ZINC000018200764
REMARK  2 active torsions:
REMARK  status: ('A' for Active; 'I' for Inactive)
REMARK    1  A    between atoms: C_14  and  O_15
REMARK    2  A    between atoms: C_17  and  C_21
REMARK                            x       y       z     vdW  Elec       q    Type
REMARK                         _______ _______ _______ _____ _____    ______ ____
ROOT
ATOM      1  C   UNL     1     -44.139 -10.108 -30.827  0.00  0.00    +0.000 C 
ATOM      2  C   UNL     1     -45.623 -10.395 -31.001  0.00  0.00    +0.000 C 
ATOM      3  C   UNL     1     -45.791 -11.870 -31.290  0.00  0.00    +0.000 C 
ATOM      4  C   UNL     1     -46.175  -9.600 -32.185  0.00  0.00    +0.000 C 
ATOM      5  C   UNL     1     -46.430  -8.156 -31.857  0.00  0.00    +0.000 C 
ATOM      6  O   UNL     1     -46.647  -7.353 -32.804  0.00  0.00    +0.000 OA
ATOM      7  C   UNL     1     -46.454  -7.675 -30.455  0.00  0.00    +0.000 C 
ATOM      8  C   UNL     1     -46.416  -8.582 -29.435  0.00  0.00    +0.000 C 
ATOM      9  C   UNL     1     -46.384 -10.058 -29.717  0.00  0.00    +0.000 C 
ATOM     10  N   UNL     1     -46.523  -8.167 -28.061  0.00  0.00    +0.000 N 
ATOM     11  C   UNL     1     -46.694  -6.785 -27.778  0.00  0.00    +0.000 A 
ATOM     12  N   UNL     1     -46.880  -6.234 -26.565  0.00  0.00    +0.000 N 
ATOM     13  N   UNL     1     -47.019  -4.924 -26.751  0.00  0.00    +0.000 NA
ATOM     14  C   UNL     1     -46.921  -4.673 -28.075  0.00  0.00    +0.000 A 
ATOM     15  C   UNL     1     -46.719  -5.849 -28.755  0.00  0.00    +0.000 A 
ATOM     16  C   UNL     1     -46.489  -6.163 -30.201  0.00  0.00    +0.000 C 
ATOM     17  H   UNL     1     -46.478  -8.828 -27.332  0.00  0.00    +0.000 HD
ATOM     18  H   UNL     1     -46.908  -6.710 -25.703  0.00  0.00    +0.000 HD
ENDROOT
BRANCH  16  19
ATOM     19  C   UNL     1     -45.230  -5.493 -30.692  0.00  0.00    +0.000 A 
ATOM     20  C   UNL     1     -43.981  -5.906 -30.209  0.00  0.00    +0.000 A 
ATOM     21  C   UNL     1     -42.818  -5.280 -30.657  0.00  0.00    +0.000 A 
ATOM     22  N   UNL     1     -42.891  -4.267 -31.560  0.00  0.00    +0.000 NA
ATOM     23  C   UNL     1     -44.083  -3.834 -32.050  0.00  0.00    +0.000 A 
ATOM     24  C   UNL     1     -44.115  -2.787 -32.976  0.00  0.00    +0.000 A 
ATOM     25  C   UNL     1     -45.337  -2.336 -33.481  0.00  0.00    +0.000 A 
ATOM     26  C   UNL     1     -46.532  -2.928 -33.063  0.00  0.00    +0.000 A 
ATOM     27  C   UNL     1     -46.508  -3.977 -32.138  0.00  0.00    +0.000 A 
ATOM     28  C   UNL     1     -45.288  -4.440 -31.624  0.00  0.00    +0.000 A 
ENDBRANCH  16  19
BRANCH  14  29
ATOM     29  O   UNL     1     -47.006  -3.407 -28.637  0.00  0.00    +0.000 OA
ATOM     30  H   UNL     1     -47.843  -3.049 -28.862  0.00  0.00    +0.000 HD
ENDBRANCH  14  29
TORSDOF 2
ENDMDL
MODEL 2
REMARK VINA RESULT:      -6.7      2.411      6.184
REMARK  Name = ZINC000018200764
REMARK  2 active torsions:
REMARK  status: ('A' for Active; 'I' for Inactive)
REMARK    1  A    between atoms: C_14  and  O_15
REMARK    2  A    between atoms: C_17  and  C_21
REMARK                            x       y       z     vdW  Elec       q    Type
REMARK                         _______ _______ _______ _____ _____    ______ ____
ROOT
ATOM      1  C   UNL     1     -42.859  -2.418 -32.536  0.00  0.00    +0.000 C 
ATOM      2  C   UNL     1     -44.227  -1.794 -32.764  0.00  0.00    +0.000 C 
ATOM      3  C   UNL     1     -44.033  -0.460 -33.449  0.00  0.00    +0.000 C 
ATOM      4  C   UNL     1     -44.925  -1.557 -31.423  0.00  0.00    +0.000 C 
ATOM      5  C   UNL     1     -45.524  -2.806 -30.842  0.00  0.00    +0.000 C 
ATOM      6  O   UNL     1     -45.903  -2.790 -29.641  0.00  0.00    +0.000 OA
ATOM      7  C   UNL     1     -45.694  -4.034 -31.658  0.00  0.00    +0.000 C 
ATOM      8  C   UNL     1     -45.465  -3.980 -33.002  0.00  0.00    +0.000 C 
ATOM      9  C   UNL     1     -45.076  -2.690 -33.668  0.00  0.00    +0.000 C 
ATOM     10  N   UNL     1     -45.699  -5.123 -33.847  0.00  0.00    +0.000 N 
ATOM     11  C   UNL     1     -46.201  -6.315 -33.256  0.00  0.00    +0.000 A 
ATOM     12  N   UNL     1     -46.540  -7.445 -33.901  0.00  0.00    +0.000 N 
ATOM     13  N   UNL     1     -46.982  -8.299 -32.982  0.00  0.00    +0.000 NA
ATOM     14  C   UNL     1     -46.916  -7.692 -31.776  0.00  0.00    +0.000 A 
ATOM     15  C   UNL     1     -46.424  -6.419 -31.926  0.00  0.00    +0.000 A 
ATOM     16  C   UNL     1     -46.093  -5.333 -30.949  0.00  0.00    +0.000 C 
ATOM     17  H   UNL     1     -45.515  -5.079 -34.813  0.00  0.00    +0.000 HD
ATOM     18  H   UNL     1     -46.474  -7.609 -34.870  0.00  0.00    +0.000 HD
ENDROOT
BRANCH  16  19
ATOM     19  C   UNL     1     -45.019  -5.793 -29.995  0.00  0.00    +0.000 A 
ATOM     20  C   UNL     1     -43.711  -5.994 -30.456  0.00  0.00    +0.000 A 
ATOM     21  C   UNL     1     -42.719  -6.427 -29.575  0.00  0.00    +0.000 A 
ATOM     22  N   UNL     1     -43.019  -6.658 -28.270  0.00  0.00    +0.000 NA
ATOM     23  C   UNL     1     -44.275  -6.479 -27.784  0.00  0.00    +0.000 A 
ATOM     24  C   UNL     1     -44.542  -6.731 -26.435  0.00  0.00    +0.000 A 
ATOM     25  C   UNL     1     -45.833  -6.551 -25.930  0.00  0.00    +0.000 A 
ATOM     26  C   UNL     1     -46.862  -6.120 -26.772  0.00  0.00    +0.000 A 
ATOM     27  C   UNL     1     -46.603  -5.865 -28.122  0.00  0.00    +0.000 A 
ATOM     28  C   UNL     1     -45.312  -6.041 -28.641  0.00  0.00    +0.000 A 
ENDBRANCH  16  19
BRANCH  14  29
ATOM     29  O   UNL     1     -47.287  -8.291 -30.580  0.00  0.00    +0.000 OA
ATOM     30  H   UNL     1     -48.190  -8.321 -30.332  0.00  0.00    +0.000 HD
ENDBRANCH  14  29
TORSDOF 2
ENDMDL
MODEL 3
REMARK VINA RESULT:      -6.6     10.736     13.930
REMARK  Name = ZINC000018200764
REMARK  2 active torsions:
REMARK  status: ('A' for Active; 'I' for Inactive)
REMARK    1  A    between atoms: C_14  and  O_15
REMARK    2  A    between atoms: C_17  and  C_21
REMARK                            x       y       z     vdW  Elec       q    Type
REMARK                         _______ _______ _______ _____ _____    ______ ____
ROOT
ATOM      1  C   UNL     1     -43.580 -14.224 -25.937  0.00  0.00    +0.000 C 
ATOM      2  C   UNL     1     -44.833 -14.941 -26.416  0.00  0.00    +0.000 C 
ATOM      3  C   UNL     1     -45.172 -14.431 -27.800  0.00  0.00    +0.000 C 
ATOM      4  C   UNL     1     -46.004 -14.632 -25.483  0.00  0.00    +0.000 C 
ATOM      5  C   UNL     1     -45.965 -15.426 -24.207  0.00  0.00    +0.000 C 
ATOM      6  O   UNL     1     -46.726 -15.085 -23.262  0.00  0.00    +0.000 OA
ATOM      7  C   UNL     1     -45.073 -16.601 -24.055  0.00  0.00    +0.000 C 
ATOM      8  C   UNL     1     -44.404 -17.078 -25.145  0.00  0.00    +0.000 C 
ATOM      9  C   UNL     1     -44.584 -16.448 -26.498  0.00  0.00    +0.000 C 
ATOM     10  N   UNL     1     -43.595 -18.266 -25.065  0.00  0.00    +0.000 N 
ATOM     11  C   UNL     1     -43.522 -18.958 -23.825  0.00  0.00    +0.000 A 
ATOM     12  N   UNL     1     -42.875 -20.114 -23.591  0.00  0.00    +0.000 N 
ATOM     13  N   UNL     1     -43.079 -20.421 -22.313  0.00  0.00    +0.000 NA
ATOM     14  C   UNL     1     -43.852 -19.457 -21.765  0.00  0.00    +0.000 A 
ATOM     15  C   UNL     1     -44.153 -18.512 -22.715  0.00  0.00    +0.000 A 
ATOM     16  C   UNL     1     -44.912 -17.221 -22.662  0.00  0.00    +0.000 C 
ATOM     17  H   UNL     1     -43.103 -18.593 -25.852  0.00  0.00    +0.000 HD
ATOM     18  H   UNL     1     -42.350 -20.634 -24.242  0.00  0.00    +0.000 HD
ENDROOT
BRANCH  16  19
ATOM     19  C   UNL     1     -44.253 -16.261 -21.705  0.00  0.00    +0.000 A 
ATOM     20  C   UNL     1     -43.018 -15.684 -22.029  0.00  0.00    +0.000 A 
ATOM     21  C   UNL     1     -42.404 -14.802 -21.139  0.00  0.00    +0.000 A 
ATOM     22  N   UNL     1     -43.000 -14.502 -19.955  0.00  0.00    +0.000 NA
ATOM     23  C   UNL     1     -44.196 -15.043 -19.600  0.00  0.00    +0.000 A 
ATOM     24  C   UNL     1     -44.773 -14.711 -18.372  0.00  0.00    +0.000 A 
ATOM     25  C   UNL     1     -46.001 -15.266 -18.002  0.00  0.00    +0.000 A 
ATOM     26  C   UNL     1     -46.656 -16.156 -18.857  0.00  0.00    +0.000 A 
ATOM     27  C   UNL     1     -46.085 -16.493 -20.088  0.00  0.00    +0.000 A 
ATOM     28  C   UNL     1     -44.854 -15.943 -20.472  0.00  0.00    +0.000 A 
ENDBRANCH  16  19
BRANCH  14  29
ATOM     29  O   UNL     1     -44.258 -19.443 -20.438  0.00  0.00    +0.000 OA
ATOM     30  H   UNL     1     -44.906 -18.829 -20.153  0.00  0.00    +0.000 HD
ENDBRANCH  14  29
TORSDOF 2
ENDMDL
