MODEL 1
REMARK VINA RESULT:      -6.0      0.000      0.000
REMARK  Name = ZINC001529174993 MolPort-046-525-132
REMARK  5 active torsions:
REMARK  status: ('A' for Active; 'I' for Inactive)
REMARK    1  A    between atoms: N_1  and  C_19
REMARK    2  A    between atoms: C_2  and  C_5
REMARK    3  A    between atoms: C_11  and  C_13
REMARK    4  A    between atoms: C_19  and  C_21
REMARK    5  A    between atoms: C_20  and  O_30
REMARK                            x       y       z     vdW  Elec       q    Type
REMARK                         _______ _______ _______ _____ _____    ______ ____
ROOT
ATOM      1  N   UNL     1     -46.745  -5.748 -34.139  0.00  0.00    +0.000 N 
ATOM      2  C   UNL     1     -46.098  -7.023 -34.193  0.00  0.00    +0.000 C 
ATOM      3  O   UNL     1     -45.740  -7.486 -35.308  0.00  0.00    +0.000 OA
ATOM      4  H   UNL     1     -46.884  -5.262 -34.983  0.00  0.00    +0.000 HD
ENDROOT
BRANCH   2   5
ATOM      5  C   UNL     1     -45.829  -7.805 -32.942  0.00  0.00    +0.000 C 
ATOM      6  O   UNL     1     -46.473  -9.056 -33.014  0.00  0.00    +0.000 OA
ATOM      7  C   UNL     1     -46.528  -9.571 -31.704  0.00  0.00    +0.000 C 
ATOM      8  C   UNL     1     -45.143  -9.809 -31.182  0.00  0.00    +0.000 C 
ATOM      9  O   UNL     1     -44.924 -10.704 -30.325  0.00  0.00    +0.000 OA
ATOM     10  N   UNL     1     -44.082  -8.972 -31.644  0.00  0.00    +0.000 N 
ATOM     11  C   UNL     1     -44.317  -8.003 -32.714  0.00  0.00    +0.000 C 
ATOM     12  H   UNL     1     -43.187  -9.049 -31.240  0.00  0.00    +0.000 HD
BRANCH  11  13
ATOM     13  C   UNL     1     -43.626  -6.712 -32.398  0.00  0.00    +0.000 A 
ATOM     14  C   UNL     1     -43.817  -6.121 -31.146  0.00  0.00    +0.000 A 
ATOM     15  C   UNL     1     -43.174  -4.920 -30.829  0.00  0.00    +0.000 A 
ATOM     16  C   UNL     1     -42.338  -4.307 -31.766  0.00  0.00    +0.000 A 
ATOM     17  C   UNL     1     -42.144  -4.892 -33.020  0.00  0.00    +0.000 A 
ATOM     18  C   UNL     1     -42.787  -6.093 -33.337  0.00  0.00    +0.000 A 
ENDBRANCH  11  13
ENDBRANCH   2   5
BRANCH   1  19
ATOM     19  C   UNL     1     -47.210  -5.129 -32.902  0.00  0.00    +0.000 C 
BRANCH  19  21
ATOM     20  C   UNL     1     -46.485  -3.315 -31.299  0.00  0.00    +0.000 A 
ATOM     21  C   UNL     1     -46.393  -3.919 -32.574  0.00  0.00    +0.000 A 
ATOM     22  C   UNL     1     -45.527  -3.388 -33.546  0.00  0.00    +0.000 A 
ATOM     23  C   UNL     1     -44.778  -2.257 -33.230  0.00  0.00    +0.000 A 
ATOM     24  C   UNL     1     -43.826  -1.558 -34.117  0.00  0.00    +0.000 C 
ATOM     25  C   UNL     1     -43.307  -0.397 -33.255  0.00  0.00    +0.000 C 
ATOM     26  C   UNL     1     -43.994  -0.480 -31.885  0.00  0.00    +0.000 C 
ATOM     27  C   UNL     1     -44.871  -1.662 -32.001  0.00  0.00    +0.000 A 
ATOM     28  C   UNL     1     -45.714  -2.170 -31.015  0.00  0.00    +0.000 A 
BRANCH  20  30
ATOM     29  C   UNL     1     -46.876  -4.388 -29.100  0.00  0.00    +0.000 C 
ATOM     30  O   UNL     1     -47.342  -3.864 -30.336  0.00  0.00    +0.000 OA
ENDBRANCH  20  30
ENDBRANCH  19  21
ENDBRANCH   1  19
TORSDOF 5
ENDMDL
MODEL 2
REMARK VINA RESULT:      -5.8     14.566     17.025
REMARK  Name = ZINC001529174993 MolPort-046-525-132
REMARK  5 active torsions:
REMARK  status: ('A' for Active; 'I' for Inactive)
REMARK    1  A    between atoms: N_1  and  C_19
REMARK    2  A    between atoms: C_2  and  C_5
REMARK    3  A    between atoms: C_11  and  C_13
REMARK    4  A    between atoms: C_19  and  C_21
REMARK    5  A    between atoms: C_20  and  O_30
REMARK                            x       y       z     vdW  Elec       q    Type
REMARK                         _______ _______ _______ _____ _____    ______ ____
ROOT
ATOM      1  N   UNL     1     -45.784 -14.613 -22.028  0.00  0.00    +0.000 N 
ATOM      2  C   UNL     1     -46.528 -14.174 -20.888  0.00  0.00    +0.000 C 
ATOM      3  O   UNL     1     -47.741 -13.866 -21.025  0.00  0.00    +0.000 OA
ATOM      4  H   UNL     1     -46.250 -14.670 -22.893  0.00  0.00    +0.000 HD
ENDROOT
BRANCH   2   5
ATOM      5  C   UNL     1     -45.888 -14.091 -19.535  0.00  0.00    +0.000 C 
ATOM      6  O   UNL     1     -46.122 -12.820 -18.974  0.00  0.00    +0.000 OA
ATOM      7  C   UNL     1     -45.199 -12.652 -17.924  0.00  0.00    +0.000 C 
ATOM      8  C   UNL     1     -45.443 -13.668 -16.850  0.00  0.00    +0.000 C 
ATOM      9  O   UNL     1     -45.149 -13.421 -15.652  0.00  0.00    +0.000 OA
ATOM     10  N   UNL     1     -45.978 -14.941 -17.218  0.00  0.00    +0.000 N 
ATOM     11  C   UNL     1     -46.415 -15.190 -18.591  0.00  0.00    +0.000 C 
ATOM     12  H   UNL     1     -46.054 -15.654 -16.543  0.00  0.00    +0.000 HD
BRANCH  11  13
ATOM     13  C   UNL     1     -45.984 -16.556 -19.028  0.00  0.00    +0.000 A 
ATOM     14  C   UNL     1     -46.946 -17.465 -19.480  0.00  0.00    +0.000 A 
ATOM     15  C   UNL     1     -46.562 -18.743 -19.901  0.00  0.00    +0.000 A 
ATOM     16  C   UNL     1     -45.215 -19.114 -19.870  0.00  0.00    +0.000 A 
ATOM     17  C   UNL     1     -44.250 -18.209 -19.417  0.00  0.00    +0.000 A 
ATOM     18  C   UNL     1     -44.633 -16.932 -18.997  0.00  0.00    +0.000 A 
ENDBRANCH  11  13
ENDBRANCH   2   5
BRANCH   1  19
ATOM     19  C   UNL     1     -44.373 -14.981 -21.981  0.00  0.00    +0.000 C 
BRANCH  19  21
ATOM     20  C   UNL     1     -42.900 -16.968 -22.500  0.00  0.00    +0.000 A 
ATOM     21  C   UNL     1     -44.150 -16.317 -22.617  0.00  0.00    +0.000 A 
ATOM     22  C   UNL     1     -45.198 -16.924 -23.330  0.00  0.00    +0.000 A 
ATOM     23  C   UNL     1     -44.975 -18.164 -23.924  0.00  0.00    +0.000 A 
ATOM     24  C   UNL     1     -45.947 -18.948 -24.712  0.00  0.00    +0.000 C 
ATOM     25  C   UNL     1     -45.164 -20.207 -25.114  0.00  0.00    +0.000 C 
ATOM     26  C   UNL     1     -43.749 -20.091 -24.527  0.00  0.00    +0.000 C 
ATOM     27  C   UNL     1     -43.765 -18.794 -23.823  0.00  0.00    +0.000 A 
ATOM     28  C   UNL     1     -42.709 -18.221 -23.116  0.00  0.00    +0.000 A 
BRANCH  20  30
ATOM     29  C   UNL     1     -40.955 -17.090 -20.969  0.00  0.00    +0.000 C 
ATOM     30  O   UNL     1     -41.869 -16.357 -21.774  0.00  0.00    +0.000 OA
ENDBRANCH  20  30
ENDBRANCH  19  21
ENDBRANCH   1  19
TORSDOF 5
ENDMDL
MODEL 3
REMARK VINA RESULT:      -5.8      2.234      6.493
REMARK  Name = ZINC001529174993 MolPort-046-525-132
REMARK  5 active torsions:
REMARK  status: ('A' for Active; 'I' for Inactive)
REMARK    1  A    between atoms: N_1  and  C_19
REMARK    2  A    between atoms: C_2  and  C_5
REMARK    3  A    between atoms: C_11  and  C_13
REMARK    4  A    between atoms: C_19  and  C_21
REMARK    5  A    between atoms: C_20  and  O_30
REMARK                            x       y       z     vdW  Elec       q    Type
REMARK                         _______ _______ _______ _____ _____    ______ ____
ROOT
ATOM      1  N   UNL     1     -46.359  -5.504 -34.031  0.00  0.00    +0.000 N 
ATOM      2  C   UNL     1     -46.583  -4.138 -33.669  0.00  0.00    +0.000 C 
ATOM      3  O   UNL     1     -47.737  -3.649 -33.795  0.00  0.00    +0.000 OA
ATOM      4  H   UNL     1     -47.123  -6.028 -34.363  0.00  0.00    +0.000 HD
ENDROOT
BRANCH   2   5
ATOM      5  C   UNL     1     -45.470  -3.290 -33.131  0.00  0.00    +0.000 C 
ATOM      6  O   UNL     1     -45.296  -2.156 -33.950  0.00  0.00    +0.000 OA
ATOM      7  C   UNL     1     -44.028  -1.620 -33.653  0.00  0.00    +0.000 C 
ATOM      8  C   UNL     1     -43.981  -1.156 -32.229  0.00  0.00    +0.000 C 
ATOM      9  O   UNL     1     -43.221  -0.215 -31.884  0.00  0.00    +0.000 OA
ATOM     10  N   UNL     1     -44.786  -1.831 -31.260  0.00  0.00    +0.000 N 
ATOM     11  C   UNL     1     -45.743  -2.854 -31.678  0.00  0.00    +0.000 C 
ATOM     12  H   UNL     1     -44.695  -1.606 -30.306  0.00  0.00    +0.000 HD
BRANCH  11  13
ATOM     13  C   UNL     1     -45.704  -4.014 -30.730  0.00  0.00    +0.000 A 
ATOM     14  C   UNL     1     -46.861  -4.363 -30.027  0.00  0.00    +0.000 A 
ATOM     15  C   UNL     1     -46.846  -5.448 -29.145  0.00  0.00    +0.000 A 
ATOM     16  C   UNL     1     -45.673  -6.185 -28.963  0.00  0.00    +0.000 A 
ATOM     17  C   UNL     1     -44.513  -5.839 -29.661  0.00  0.00    +0.000 A 
ATOM     18  C   UNL     1     -44.527  -4.755 -30.544  0.00  0.00    +0.000 A 
ENDBRANCH  11  13
ENDBRANCH   2   5
BRANCH   1  19
ATOM     19  C   UNL     1     -45.061  -6.162 -33.938  0.00  0.00    +0.000 C 
BRANCH  19  21
ATOM     20  C   UNL     1     -43.938  -8.024 -32.649  0.00  0.00    +0.000 A 
ATOM     21  C   UNL     1     -45.110  -7.298 -32.965  0.00  0.00    +0.000 A 
ATOM     22  C   UNL     1     -46.334  -7.636 -32.361  0.00  0.00    +0.000 A 
ATOM     23  C   UNL     1     -46.368  -8.700 -31.463  0.00  0.00    +0.000 A 
ATOM     24  C   UNL     1     -47.553  -9.202 -30.740  0.00  0.00    +0.000 C 
ATOM     25  C   UNL     1     -47.008 -10.372 -29.908  0.00  0.00    +0.000 C 
ATOM     26  C   UNL     1     -45.504 -10.495 -30.193  0.00  0.00    +0.000 C 
ATOM     27  C   UNL     1     -45.239  -9.413 -31.162  0.00  0.00    +0.000 A 
ATOM     28  C   UNL     1     -44.011  -9.097 -31.738  0.00  0.00    +0.000 A 
BRANCH  20  30
ATOM     29  C   UNL     1     -41.603  -7.211 -32.503  0.00  0.00    +0.000 C 
ATOM     30  O   UNL     1     -42.723  -7.667 -33.248  0.00  0.00    +0.000 OA
ENDBRANCH  20  30
ENDBRANCH  19  21
ENDBRANCH   1  19
TORSDOF 5
ENDMDL
