MODEL 1
REMARK VINA RESULT:      -7.0      0.000      0.000
REMARK  Name = ZINC000031811572
REMARK  1 active torsions:
REMARK  status: ('A' for Active; 'I' for Inactive)
REMARK    1  A    between atoms: C_7  and  C_24
REMARK                            x       y       z     vdW  Elec       q    Type
REMARK                         _______ _______ _______ _____ _____    ______ ____
ROOT
ATOM      1  C   UNL     1     -47.361  -3.886 -34.013  0.00  0.00    +0.000 C 
ATOM      2  C   UNL     1     -46.625  -5.162 -33.798  0.00  0.00    +0.000 A 
ATOM      3  N   UNL     1     -46.789  -6.252 -34.570  0.00  0.00    +0.000 NA
ATOM      4  N   UNL     1     -45.991  -7.198 -34.102  0.00  0.00    +0.000 N 
ATOM      5  C   UNL     1     -45.285  -6.722 -33.050  0.00  0.00    +0.000 A 
ATOM      6  C   UNL     1     -45.684  -5.408 -32.813  0.00  0.00    +0.000 A 
ATOM      7  C   UNL     1     -45.233  -4.399 -31.795  0.00  0.00    +0.000 C 
ATOM      8  S   UNL     1     -44.638  -5.075 -30.214  0.00  0.00    +0.000 S 
ATOM      9  C   UNL     1     -43.122  -5.712 -30.961  0.00  0.00    +0.000 C 
ATOM     10  C   UNL     1     -43.324  -7.119 -31.384  0.00  0.00    +0.000 C 
ATOM     11  O   UNL     1     -42.605  -8.010 -30.861  0.00  0.00    +0.000 OA
ATOM     12  N   UNL     1     -44.275  -7.499 -32.383  0.00  0.00    +0.000 N 
ATOM     13  H   UNL     1     -44.232  -8.443 -32.657  0.00  0.00    +0.000 HD
ATOM     14  C   UNL     1     -45.887  -8.492 -34.713  0.00  0.00    +0.000 A 
ATOM     15  N   UNL     1     -45.977  -8.617 -36.072  0.00  0.00    +0.000 NA
ATOM     16  C   UNL     1     -45.910  -9.841 -36.685  0.00  0.00    +0.000 A 
ATOM     17  N   UNL     1     -45.767 -10.982 -35.944  0.00  0.00    +0.000 NA
ATOM     18  C   UNL     1     -45.693 -10.861 -34.598  0.00  0.00    +0.000 A 
ATOM     19  N   UNL     1     -45.610 -11.860 -33.710  0.00  0.00    +0.000 N 
ATOM     20  C   UNL     1     -45.631 -11.198 -32.522  0.00  0.00    +0.000 A 
ATOM     21  N   UNL     1     -45.727  -9.846 -32.644  0.00  0.00    +0.000 NA
ATOM     22  C   UNL     1     -45.754  -9.667 -33.971  0.00  0.00    +0.000 A 
ATOM     23  H   UNL     1     -45.550 -12.829 -33.876  0.00  0.00    +0.000 HD
ENDROOT
BRANCH   7  24
ATOM     24  C   UNL     1     -44.419  -3.243 -32.326  0.00  0.00    +0.000 A 
ATOM     25  C   UNL     1     -43.488  -3.393 -33.375  0.00  0.00    +0.000 A 
ATOM     26  F   UNL     1     -43.281  -4.595 -33.969  0.00  0.00    +0.000 F 
ATOM     27  C   UNL     1     -42.756  -2.291 -33.826  0.00  0.00    +0.000 A 
ATOM     28  C   UNL     1     -42.940  -1.037 -33.243  0.00  0.00    +0.000 A 
ATOM     29  C   UNL     1     -43.858  -0.881 -32.203  0.00  0.00    +0.000 A 
ATOM     30  C   UNL     1     -44.595  -1.976 -31.744  0.00  0.00    +0.000 A 
ATOM     31  F   UNL     1     -45.482  -1.797 -30.734  0.00  0.00    +0.000 F 
ENDBRANCH   7  24
TORSDOF 1
ENDMDL
MODEL 2
REMARK VINA RESULT:      -6.6      2.661      3.555
REMARK  Name = ZINC000031811572
REMARK  1 active torsions:
REMARK  status: ('A' for Active; 'I' for Inactive)
REMARK    1  A    between atoms: C_7  and  C_24
REMARK                            x       y       z     vdW  Elec       q    Type
REMARK                         _______ _______ _______ _____ _____    ______ ____
ROOT
ATOM      1  C   UNL     1     -45.843  -6.554 -34.760  0.00  0.00    +0.000 C 
ATOM      2  C   UNL     1     -45.779  -7.163 -33.403  0.00  0.00    +0.000 A 
ATOM      3  N   UNL     1     -45.339  -8.413 -33.171  0.00  0.00    +0.000 NA
ATOM      4  N   UNL     1     -45.417  -8.630 -31.868  0.00  0.00    +0.000 N 
ATOM      5  C   UNL     1     -45.875  -7.519 -31.246  0.00  0.00    +0.000 A 
ATOM      6  C   UNL     1     -46.137  -6.551 -32.214  0.00  0.00    +0.000 A 
ATOM      7  C   UNL     1     -46.641  -5.140 -32.100  0.00  0.00    +0.000 C 
ATOM      8  S   UNL     1     -47.733  -4.797 -30.685  0.00  0.00    +0.000 S 
ATOM      9  C   UNL     1     -46.375  -4.917 -29.501  0.00  0.00    +0.000 C 
ATOM     10  C   UNL     1     -46.285  -6.303 -28.980  0.00  0.00    +0.000 C 
ATOM     11  O   UNL     1     -46.444  -6.490 -27.746  0.00  0.00    +0.000 OA
ATOM     12  N   UNL     1     -45.990  -7.427 -29.815  0.00  0.00    +0.000 N 
ATOM     13  H   UNL     1     -45.843  -8.273 -29.334  0.00  0.00    +0.000 HD
ATOM     14  C   UNL     1     -44.994  -9.861 -31.264  0.00  0.00    +0.000 A 
ATOM     15  N   UNL     1     -43.913 -10.532 -31.763  0.00  0.00    +0.000 NA
ATOM     16  C   UNL     1     -43.500 -11.725 -31.227  0.00  0.00    +0.000 A 
ATOM     17  N   UNL     1     -44.176 -12.286 -30.180  0.00  0.00    +0.000 NA
ATOM     18  C   UNL     1     -45.255 -11.630 -29.694  0.00  0.00    +0.000 A 
ATOM     19  N   UNL     1     -46.071 -12.047 -28.718  0.00  0.00    +0.000 N 
ATOM     20  C   UNL     1     -47.007 -11.062 -28.676  0.00  0.00    +0.000 A 
ATOM     21  N   UNL     1     -46.803 -10.067 -29.583  0.00  0.00    +0.000 NA
ATOM     22  C   UNL     1     -45.680 -10.454 -30.203  0.00  0.00    +0.000 A 
ATOM     23  H   UNL     1     -46.009 -12.863 -28.169  0.00  0.00    +0.000 HD
ENDROOT
BRANCH   7  24
ATOM     24  C   UNL     1     -45.634  -4.053 -32.389  0.00  0.00    +0.000 A 
ATOM     25  C   UNL     1     -44.316  -4.090 -31.887  0.00  0.00    +0.000 A 
ATOM     26  F   UNL     1     -43.884  -5.119 -31.117  0.00  0.00    +0.000 F 
ATOM     27  C   UNL     1     -43.424  -3.055 -32.182  0.00  0.00    +0.000 A 
ATOM     28  C   UNL     1     -43.830  -1.979 -32.971  0.00  0.00    +0.000 A 
ATOM     29  C   UNL     1     -45.133  -1.934 -33.470  0.00  0.00    +0.000 A 
ATOM     30  C   UNL     1     -46.032  -2.963 -33.183  0.00  0.00    +0.000 A 
ATOM     31  F   UNL     1     -47.292  -2.896 -33.681  0.00  0.00    +0.000 F 
ENDBRANCH   7  24
TORSDOF 1
ENDMDL
MODEL 3
REMARK VINA RESULT:      -6.5      4.358      7.123
REMARK  Name = ZINC000031811572
REMARK  1 active torsions:
REMARK  status: ('A' for Active; 'I' for Inactive)
REMARK    1  A    between atoms: C_7  and  C_24
REMARK                            x       y       z     vdW  Elec       q    Type
REMARK                         _______ _______ _______ _____ _____    ______ ____
ROOT
ATOM      1  C   UNL     1     -42.607  -6.785 -27.502  0.00  0.00    +0.000 C 
ATOM      2  C   UNL     1     -43.077  -6.132 -28.755  0.00  0.00    +0.000 A 
ATOM      3  N   UNL     1     -42.255  -5.767 -29.755  0.00  0.00    +0.000 NA
ATOM      4  N   UNL     1     -42.996  -5.220 -30.704  0.00  0.00    +0.000 N 
ATOM      5  C   UNL     1     -44.299  -5.254 -30.343  0.00  0.00    +0.000 A 
ATOM      6  C   UNL     1     -44.388  -5.824 -29.074  0.00  0.00    +0.000 A 
ATOM      7  C   UNL     1     -45.572  -6.123 -28.197  0.00  0.00    +0.000 C 
ATOM      8  S   UNL     1     -47.006  -5.021 -28.394  0.00  0.00    +0.000 S 
ATOM      9  C   UNL     1     -47.422  -5.712 -30.010  0.00  0.00    +0.000 C 
ATOM     10  C   UNL     1     -46.774  -4.912 -31.079  0.00  0.00    +0.000 C 
ATOM     11  O   UNL     1     -47.508  -4.335 -31.921  0.00  0.00    +0.000 OA
ATOM     12  N   UNL     1     -45.354  -4.801 -31.210  0.00  0.00    +0.000 N 
ATOM     13  H   UNL     1     -45.049  -4.341 -32.025  0.00  0.00    +0.000 HD
ATOM     14  C   UNL     1     -42.442  -4.745 -31.940  0.00  0.00    +0.000 A 
ATOM     15  N   UNL     1     -41.395  -5.406 -32.519  0.00  0.00    +0.000 NA
ATOM     16  C   UNL     1     -40.823  -4.963 -33.683  0.00  0.00    +0.000 A 
ATOM     17  N   UNL     1     -41.280  -3.828 -34.293  0.00  0.00    +0.000 NA
ATOM     18  C   UNL     1     -42.308  -3.164 -33.713  0.00  0.00    +0.000 A 
ATOM     19  N   UNL     1     -42.850  -2.012 -34.127  0.00  0.00    +0.000 N 
ATOM     20  C   UNL     1     -43.779  -1.762 -33.166  0.00  0.00    +0.000 A 
ATOM     21  N   UNL     1     -43.825  -2.704 -32.184  0.00  0.00    +0.000 NA
ATOM     22  C   UNL     1     -42.888  -3.581 -32.568  0.00  0.00    +0.000 A 
ATOM     23  H   UNL     1     -42.630  -1.480 -34.927  0.00  0.00    +0.000 HD
ENDROOT
BRANCH   7  24
ATOM     24  C   UNL     1     -45.923  -7.582 -28.036  0.00  0.00    +0.000 A 
ATOM     25  C   UNL     1     -45.780  -8.515 -29.086  0.00  0.00    +0.000 A 
ATOM     26  F   UNL     1     -45.310  -8.141 -30.302  0.00  0.00    +0.000 F 
ATOM     27  C   UNL     1     -46.125  -9.854 -28.885  0.00  0.00    +0.000 A 
ATOM     28  C   UNL     1     -46.612 -10.278 -27.648  0.00  0.00    +0.000 A 
ATOM     29  C   UNL     1     -46.758  -9.362 -26.606  0.00  0.00    +0.000 A 
ATOM     30  C   UNL     1     -46.416  -8.020 -26.795  0.00  0.00    +0.000 A 
ATOM     31  F   UNL     1     -46.566  -7.150 -25.766  0.00  0.00    +0.000 F 
ENDBRANCH   7  24
TORSDOF 1
ENDMDL
