MODEL 1
REMARK VINA RESULT:      -5.9      0.000      0.000
REMARK  Name = ZINC000012786823
REMARK  2 active torsions:
REMARK  status: ('A' for Active; 'I' for Inactive)
REMARK    1  A    between atoms: C_1  and  C_15
REMARK    2  A    between atoms: N_13  and  C_21
REMARK                            x       y       z     vdW  Elec       q    Type
REMARK                         _______ _______ _______ _____ _____    ______ ____
ROOT
ATOM      1  C   UNL     1     -43.732  -4.747 -32.532  0.00  0.00    +0.000 A 
ATOM      2  C   UNL     1     -42.557  -5.490 -32.359  0.00  0.00    +0.000 A 
ATOM      3  C   UNL     1     -41.339  -4.844 -32.149  0.00  0.00    +0.000 A 
ATOM      4  O   UNL     1     -40.291  -5.520 -31.990  0.00  0.00    +0.000 OA
ATOM      5  N   UNL     1     -41.282  -3.488 -32.116  0.00  0.00    +0.000 N 
ATOM      6  C   UNL     1     -42.393  -2.724 -32.283  0.00  0.00    +0.000 A 
ATOM      7  C   UNL     1     -42.287  -1.331 -32.235  0.00  0.00    +0.000 A 
ATOM      8  C   UNL     1     -43.424  -0.535 -32.395  0.00  0.00    +0.000 A 
ATOM      9  C   UNL     1     -44.671  -1.129 -32.600  0.00  0.00    +0.000 A 
ATOM     10  C   UNL     1     -44.786  -2.521 -32.650  0.00  0.00    +0.000 A 
ATOM     11  C   UNL     1     -43.652  -3.335 -32.499  0.00  0.00    +0.000 A 
ATOM     12  H   UNL     1     -40.414  -3.047 -31.967  0.00  0.00    +0.000 HD
ENDROOT
BRANCH   1  15
ATOM     13  N   UNL     1     -45.755  -6.078 -31.717  0.00  0.00    +0.000 N 
ATOM     14  C   UNL     1     -46.811  -7.032 -32.037  0.00  0.00    +0.000 C 
ATOM     15  C   UNL     1     -45.006  -5.468 -32.785  0.00  0.00    +0.000 C 
ATOM     16  O   UNL     1     -45.431  -5.563 -33.969  0.00  0.00    +0.000 OA
BRANCH  13  21
ATOM     17  C   UNL     1     -46.390  -7.329 -27.103  0.00  0.00    +0.000 C 
ATOM     18  C   UNL     1     -45.703  -6.006 -27.404  0.00  0.00    +0.000 C 
ATOM     19  C   UNL     1     -46.635  -5.054 -28.159  0.00  0.00    +0.000 C 
ATOM     20  C   UNL     1     -46.874  -5.520 -29.595  0.00  0.00    +0.000 C 
ATOM     21  C   UNL     1     -45.542  -5.677 -30.326  0.00  0.00    +0.000 C 
ATOM     22  C   UNL     1     -44.646  -6.681 -29.603  0.00  0.00    +0.000 C 
ATOM     23  C   UNL     1     -44.393  -6.223 -28.167  0.00  0.00    +0.000 C 
ENDBRANCH  13  21
ENDBRANCH   1  15
TORSDOF 2
ENDMDL
MODEL 2
REMARK VINA RESULT:      -5.9      1.799      2.757
REMARK  Name = ZINC000012786823
REMARK  2 active torsions:
REMARK  status: ('A' for Active; 'I' for Inactive)
REMARK    1  A    between atoms: C_1  and  C_15
REMARK    2  A    between atoms: N_13  and  C_21
REMARK                            x       y       z     vdW  Elec       q    Type
REMARK                         _______ _______ _______ _____ _____    ______ ____
ROOT
ATOM      1  C   UNL     1     -44.996  -3.367 -32.605  0.00  0.00    +0.000 A 
ATOM      2  C   UNL     1     -45.479  -2.175 -32.049  0.00  0.00    +0.000 A 
ATOM      3  C   UNL     1     -44.608  -1.118 -31.783  0.00  0.00    +0.000 A 
ATOM      4  O   UNL     1     -45.052  -0.050 -31.287  0.00  0.00    +0.000 OA
ATOM      5  N   UNL     1     -43.284  -1.239 -32.056  0.00  0.00    +0.000 N 
ATOM      6  C   UNL     1     -42.768  -2.376 -32.591  0.00  0.00    +0.000 A 
ATOM      7  C   UNL     1     -41.399  -2.454 -32.860  0.00  0.00    +0.000 A 
ATOM      8  C   UNL     1     -40.858  -3.614 -33.421  0.00  0.00    +0.000 A 
ATOM      9  C   UNL     1     -41.686  -4.700 -33.716  0.00  0.00    +0.000 A 
ATOM     10  C   UNL     1     -43.055  -4.631 -33.448  0.00  0.00    +0.000 A 
ATOM     11  C   UNL     1     -43.613  -3.475 -32.878  0.00  0.00    +0.000 A 
ATOM     12  H   UNL     1     -42.682  -0.485 -31.861  0.00  0.00    +0.000 HD
ENDROOT
BRANCH   1  15
ATOM     13  N   UNL     1     -46.143  -5.531 -31.879  0.00  0.00    +0.000 N 
ATOM     14  C   UNL     1     -46.831  -6.754 -32.278  0.00  0.00    +0.000 C 
ATOM     15  C   UNL     1     -45.948  -4.482 -32.846  0.00  0.00    +0.000 C 
ATOM     16  O   UNL     1     -46.586  -4.518 -33.933  0.00  0.00    +0.000 OA
BRANCH  13  21
ATOM     17  C   UNL     1     -46.059  -7.553 -27.501  0.00  0.00    +0.000 C 
ATOM     18  C   UNL     1     -45.486  -6.154 -27.661  0.00  0.00    +0.000 C 
ATOM     19  C   UNL     1     -46.560  -5.161 -28.114  0.00  0.00    +0.000 C 
ATOM     20  C   UNL     1     -46.977  -5.404 -29.564  0.00  0.00    +0.000 C 
ATOM     21  C   UNL     1     -45.756  -5.346 -30.480  0.00  0.00    +0.000 C 
ATOM     22  C   UNL     1     -44.719  -6.388 -30.062  0.00  0.00    +0.000 C 
ATOM     23  C   UNL     1     -44.288  -6.150 -28.615  0.00  0.00    +0.000 C 
ENDBRANCH  13  21
ENDBRANCH   1  15
TORSDOF 2
ENDMDL
MODEL 3
REMARK VINA RESULT:      -5.8      3.259      6.115
REMARK  Name = ZINC000012786823
REMARK  2 active torsions:
REMARK  status: ('A' for Active; 'I' for Inactive)
REMARK    1  A    between atoms: C_1  and  C_15
REMARK    2  A    between atoms: N_13  and  C_21
REMARK                            x       y       z     vdW  Elec       q    Type
REMARK                         _______ _______ _______ _____ _____    ______ ____
ROOT
ATOM      1  C   UNL     1     -44.210  -4.585 -33.071  0.00  0.00    +0.000 A 
ATOM      2  C   UNL     1     -45.580  -4.704 -33.334  0.00  0.00    +0.000 A 
ATOM      3  C   UNL     1     -46.358  -3.567 -33.553  0.00  0.00    +0.000 A 
ATOM      4  O   UNL     1     -47.587  -3.685 -33.792  0.00  0.00    +0.000 OA
ATOM      5  N   UNL     1     -45.792  -2.334 -33.508  0.00  0.00    +0.000 N 
ATOM      6  C   UNL     1     -44.468  -2.167 -33.253  0.00  0.00    +0.000 A 
ATOM      7  C   UNL     1     -43.928  -0.878 -33.222  0.00  0.00    +0.000 A 
ATOM      8  C   UNL     1     -42.565  -0.694 -32.972  0.00  0.00    +0.000 A 
ATOM      9  C   UNL     1     -41.738  -1.798 -32.753  0.00  0.00    +0.000 A 
ATOM     10  C   UNL     1     -42.271  -3.090 -32.781  0.00  0.00    +0.000 A 
ATOM     11  C   UNL     1     -43.639  -3.292 -33.024  0.00  0.00    +0.000 A 
ATOM     12  H   UNL     1     -46.354  -1.541 -33.664  0.00  0.00    +0.000 HD
ENDROOT
BRANCH   1  15
ATOM     13  N   UNL     1     -42.915  -6.631 -33.886  0.00  0.00    +0.000 N 
ATOM     14  C   UNL     1     -42.428  -7.976 -33.598  0.00  0.00    +0.000 C 
ATOM     15  C   UNL     1     -43.420  -5.816 -32.812  0.00  0.00    +0.000 C 
ATOM     16  O   UNL     1     -43.202  -6.164 -31.619  0.00  0.00    +0.000 OA
BRANCH  13  21
ATOM     17  C   UNL     1     -40.636  -7.074 -38.114  0.00  0.00    +0.000 C 
ATOM     18  C   UNL     1     -41.677  -5.975 -37.967  0.00  0.00    +0.000 C 
ATOM     19  C   UNL     1     -41.272  -4.967 -36.888  0.00  0.00    +0.000 C 
ATOM     20  C   UNL     1     -41.373  -5.567 -35.487  0.00  0.00    +0.000 C 
ATOM     21  C   UNL     1     -42.786  -6.094 -35.241  0.00  0.00    +0.000 C 
ATOM     22  C   UNL     1     -43.156  -7.150 -36.281  0.00  0.00    +0.000 C 
ATOM     23  C   UNL     1     -43.065  -6.559 -37.687  0.00  0.00    +0.000 C 
ENDBRANCH  13  21
ENDBRANCH   1  15
TORSDOF 2
ENDMDL
