MODEL 1
REMARK VINA RESULT:      -7.1      0.000      0.000
REMARK  Name = ZINC000031810754
REMARK  1 active torsions:
REMARK  status: ('A' for Active; 'I' for Inactive)
REMARK    1  A    between atoms: C_7  and  C_24
REMARK                            x       y       z     vdW  Elec       q    Type
REMARK                         _______ _______ _______ _____ _____    ______ ____
ROOT
ATOM      1  C   UNL     1     -42.883  -5.775 -34.801  0.00  0.00    +0.000 C 
ATOM      2  C   UNL     1     -43.703  -6.145 -33.615  0.00  0.00    +0.000 A 
ATOM      3  N   UNL     1     -43.553  -7.299 -32.941  0.00  0.00    +0.000 NA
ATOM      4  N   UNL     1     -44.428  -7.300 -31.949  0.00  0.00    +0.000 N 
ATOM      5  C   UNL     1     -45.125  -6.141 -31.953  0.00  0.00    +0.000 A 
ATOM      6  C   UNL     1     -44.696  -5.373 -33.034  0.00  0.00    +0.000 A 
ATOM      7  C   UNL     1     -45.081  -3.996 -33.497  0.00  0.00    +0.000 C 
ATOM      8  S   UNL     1     -46.815  -3.541 -33.187  0.00  0.00    +0.000 S 
ATOM      9  C   UNL     1     -46.537  -3.346 -31.411  0.00  0.00    +0.000 C 
ATOM     10  C   UNL     1     -46.835  -4.617 -30.708  0.00  0.00    +0.000 C 
ATOM     11  O   UNL     1     -47.746  -4.622 -29.841  0.00  0.00    +0.000 OA
ATOM     12  N   UNL     1     -46.104  -5.823 -30.948  0.00  0.00    +0.000 N 
ATOM     13  H   UNL     1     -46.303  -6.557 -30.321  0.00  0.00    +0.000 HD
ATOM     14  C   UNL     1     -44.522  -8.375 -31.004  0.00  0.00    +0.000 A 
ATOM     15  N   UNL     1     -43.390  -9.007 -30.570  0.00  0.00    +0.000 NA
ATOM     16  C   UNL     1     -43.446 -10.056 -29.689  0.00  0.00    +0.000 A 
ATOM     17  N   UNL     1     -44.650 -10.512 -29.230  0.00  0.00    +0.000 NA
ATOM     18  C   UNL     1     -45.774  -9.896 -29.669  0.00  0.00    +0.000 A 
ATOM     19  N   UNL     1     -47.035 -10.236 -29.377  0.00  0.00    +0.000 N 
ATOM     20  C   UNL     1     -47.756  -9.351 -30.118  0.00  0.00    +0.000 A 
ATOM     21  N   UNL     1     -46.993  -8.495 -30.850  0.00  0.00    +0.000 NA
ATOM     22  C   UNL     1     -45.743  -8.861 -30.533  0.00  0.00    +0.000 A 
ATOM     23  H   UNL     1     -47.360 -10.946 -28.778  0.00  0.00    +0.000 HD
ENDROOT
BRANCH   7  24
ATOM     24  C   UNL     1     -44.096  -2.916 -33.143  0.00  0.00    +0.000 A 
ATOM     25  C   UNL     1     -44.379  -1.593 -33.504  0.00  0.00    +0.000 A 
ATOM     26  C   UNL     1     -43.487  -0.567 -33.178  0.00  0.00    +0.000 A 
ATOM     27  C   UNL     1     -42.309  -0.858 -32.486  0.00  0.00    +0.000 A 
ATOM     28  F   UNL     1     -41.446   0.137 -32.171  0.00  0.00    +0.000 F 
ATOM     29  C   UNL     1     -42.021  -2.175 -32.118  0.00  0.00    +0.000 A 
ATOM     30  C   UNL     1     -42.912  -3.202 -32.444  0.00  0.00    +0.000 A 
ENDBRANCH   7  24
TORSDOF 1
ENDMDL
MODEL 2
REMARK VINA RESULT:      -6.9      2.800      3.498
REMARK  Name = ZINC000031810754
REMARK  1 active torsions:
REMARK  status: ('A' for Active; 'I' for Inactive)
REMARK    1  A    between atoms: C_7  and  C_24
REMARK                            x       y       z     vdW  Elec       q    Type
REMARK                         _______ _______ _______ _____ _____    ______ ____
ROOT
ATOM      1  C   UNL     1     -47.446  -4.235 -34.417  0.00  0.00    +0.000 C 
ATOM      2  C   UNL     1     -46.686  -5.414 -33.917  0.00  0.00    +0.000 A 
ATOM      3  N   UNL     1     -46.593  -6.574 -34.591  0.00  0.00    +0.000 NA
ATOM      4  N   UNL     1     -45.845  -7.396 -33.872  0.00  0.00    +0.000 N 
ATOM      5  C   UNL     1     -45.424  -6.767 -32.750  0.00  0.00    +0.000 A 
ATOM      6  C   UNL     1     -45.967  -5.483 -32.736  0.00  0.00    +0.000 A 
ATOM      7  C   UNL     1     -45.808  -4.341 -31.771  0.00  0.00    +0.000 C 
ATOM      8  S   UNL     1     -45.577  -4.833 -30.035  0.00  0.00    +0.000 S 
ATOM      9  C   UNL     1     -43.885  -5.400 -30.329  0.00  0.00    +0.000 C 
ATOM     10  C   UNL     1     -43.884  -6.847 -30.650  0.00  0.00    +0.000 C 
ATOM     11  O   UNL     1     -43.252  -7.627 -29.891  0.00  0.00    +0.000 OA
ATOM     12  N   UNL     1     -44.535  -7.385 -31.804  0.00  0.00    +0.000 N 
ATOM     13  H   UNL     1     -44.343  -8.335 -31.980  0.00  0.00    +0.000 HD
ATOM     14  C   UNL     1     -45.512  -8.720 -34.310  0.00  0.00    +0.000 A 
ATOM     15  N   UNL     1     -45.255  -8.960 -35.631  0.00  0.00    +0.000 NA
ATOM     16  C   UNL     1     -44.961 -10.219 -36.088  0.00  0.00    +0.000 A 
ATOM     17  N   UNL     1     -44.934 -11.281 -35.227  0.00  0.00    +0.000 NA
ATOM     18  C   UNL     1     -45.203 -11.047 -33.920  0.00  0.00    +0.000 A 
ATOM     19  N   UNL     1     -45.280 -11.962 -32.946  0.00  0.00    +0.000 N 
ATOM     20  C   UNL     1     -45.636 -11.212 -31.867  0.00  0.00    +0.000 A 
ATOM     21  N   UNL     1     -45.784  -9.888 -32.141  0.00  0.00    +0.000 NA
ATOM     22  C   UNL     1     -45.492  -9.818 -33.448  0.00  0.00    +0.000 A 
ATOM     23  H   UNL     1     -45.119 -12.932 -32.996  0.00  0.00    +0.000 HD
ENDROOT
BRANCH   7  24
ATOM     24  C   UNL     1     -44.867  -3.261 -32.227  0.00  0.00    +0.000 A 
ATOM     25  C   UNL     1     -43.921  -3.556 -33.217  0.00  0.00    +0.000 A 
ATOM     26  C   UNL     1     -43.040  -2.568 -33.668  0.00  0.00    +0.000 A 
ATOM     27  C   UNL     1     -43.102  -1.279 -33.133  0.00  0.00    +0.000 A 
ATOM     28  F   UNL     1     -42.248  -0.323 -33.571  0.00  0.00    +0.000 F 
ATOM     29  C   UNL     1     -44.046  -0.975 -32.148  0.00  0.00    +0.000 A 
ATOM     30  C   UNL     1     -44.926  -1.962 -31.696  0.00  0.00    +0.000 A 
ENDBRANCH   7  24
TORSDOF 1
ENDMDL
MODEL 3
REMARK VINA RESULT:      -6.8      3.827      7.140
REMARK  Name = ZINC000031810754
REMARK  1 active torsions:
REMARK  status: ('A' for Active; 'I' for Inactive)
REMARK    1  A    between atoms: C_7  and  C_24
REMARK                            x       y       z     vdW  Elec       q    Type
REMARK                         _______ _______ _______ _____ _____    ______ ____
ROOT
ATOM      1  C   UNL     1     -42.476  -6.793 -27.574  0.00  0.00    +0.000 C 
ATOM      2  C   UNL     1     -42.988  -6.113 -28.796  0.00  0.00    +0.000 A 
ATOM      3  N   UNL     1     -42.198  -5.726 -29.814  0.00  0.00    +0.000 NA
ATOM      4  N   UNL     1     -42.972  -5.167 -30.730  0.00  0.00    +0.000 N 
ATOM      5  C   UNL     1     -44.264  -5.216 -30.330  0.00  0.00    +0.000 A 
ATOM      6  C   UNL     1     -44.311  -5.806 -29.068  0.00  0.00    +0.000 A 
ATOM      7  C   UNL     1     -45.465  -6.155 -28.170  0.00  0.00    +0.000 C 
ATOM      8  S   UNL     1     -46.883  -5.020 -28.271  0.00  0.00    +0.000 S 
ATOM      9  C   UNL     1     -47.382  -5.649 -29.892  0.00  0.00    +0.000 C 
ATOM     10  C   UNL     1     -46.762  -4.834 -30.964  0.00  0.00    +0.000 C 
ATOM     11  O   UNL     1     -47.518  -4.222 -31.763  0.00  0.00    +0.000 OA
ATOM     12  N   UNL     1     -45.347  -4.746 -31.151  0.00  0.00    +0.000 N 
ATOM     13  H   UNL     1     -45.067  -4.290 -31.978  0.00  0.00    +0.000 HD
ATOM     14  C   UNL     1     -42.459  -4.666 -31.972  0.00  0.00    +0.000 A 
ATOM     15  N   UNL     1     -41.453  -5.331 -32.616  0.00  0.00    +0.000 NA
ATOM     16  C   UNL     1     -40.921  -4.864 -33.790  0.00  0.00    +0.000 A 
ATOM     17  N   UNL     1     -41.377  -3.700 -34.344  0.00  0.00    +0.000 NA
ATOM     18  C   UNL     1     -42.364  -3.032 -33.700  0.00  0.00    +0.000 A 
ATOM     19  N   UNL     1     -42.894  -1.856 -34.056  0.00  0.00    +0.000 N 
ATOM     20  C   UNL     1     -43.777  -1.616 -33.048  0.00  0.00    +0.000 A 
ATOM     21  N   UNL     1     -43.803  -2.587 -32.095  0.00  0.00    +0.000 NA
ATOM     22  C   UNL     1     -42.904  -3.473 -32.546  0.00  0.00    +0.000 A 
ATOM     23  H   UNL     1     -42.697  -1.304 -34.846  0.00  0.00    +0.000 HD
ENDROOT
BRANCH   7  24
ATOM     24  C   UNL     1     -45.848  -7.609 -28.176  0.00  0.00    +0.000 A 
ATOM     25  C   UNL     1     -46.629  -8.111 -27.128  0.00  0.00    +0.000 A 
ATOM     26  C   UNL     1     -47.009  -9.456 -27.112  0.00  0.00    +0.000 A 
ATOM     27  C   UNL     1     -46.613 -10.306 -28.147  0.00  0.00    +0.000 A 
ATOM     28  F   UNL     1     -46.982 -11.609 -28.131  0.00  0.00    +0.000 F 
ATOM     29  C   UNL     1     -45.837  -9.813 -29.200  0.00  0.00    +0.000 A 
ATOM     30  C   UNL     1     -45.456  -8.468 -29.215  0.00  0.00    +0.000 A 
ENDBRANCH   7  24
TORSDOF 1
ENDMDL
