MODEL 1
REMARK VINA RESULT:      -6.5      0.000      0.000
REMARK  Name = ZINC000063474270 CSC027367595 MCULE-3459856010 MolPort-020-069-293
REMARK  4 active torsions:
REMARK  status: ('A' for Active; 'I' for Inactive)
REMARK    1  A    between atoms: C_1  and  C_24
REMARK    2  A    between atoms: C_9  and  C_10
REMARK    3  A    between atoms: C_24  and  S_25
REMARK    4  A    between atoms: S_25  and  C_29
REMARK                            x       y       z     vdW  Elec       q    Type
REMARK                         _______ _______ _______ _____ _____    ______ ____
ROOT
ATOM      1  C   UNL     1     -46.811  -5.656 -27.465  0.00  0.00    +0.000 A 
ATOM      2  C   UNL     1     -46.995  -4.813 -26.392  0.00  0.00    +0.000 A 
ATOM      3  C   UNL     1     -47.203  -3.562 -26.907  0.00  0.00    +0.000 A 
ATOM      4  C   UNL     1     -47.435  -2.459 -26.088  0.00  0.00    +0.000 A 
ATOM      5  C   UNL     1     -47.448  -2.672 -24.698  0.00  0.00    +0.000 A 
ATOM      6  C   UNL     1     -47.233  -3.963 -24.166  0.00  0.00    +0.000 A 
ATOM      7  C   UNL     1     -47.003  -5.058 -25.019  0.00  0.00    +0.000 A 
ATOM      8  O   UNL     1     -47.151  -3.585 -28.217  0.00  0.00    +0.000 OA
ATOM      9  C   UNL     1     -46.907  -4.830 -28.591  0.00  0.00    +0.000 A 
ENDROOT
BRANCH   9  10
ATOM     10  C   UNL     1     -46.787  -5.222 -30.008  0.00  0.00    +0.000 C 
ATOM     11  N   UNL     1     -45.586  -5.817 -30.528  0.00  0.00    +0.000 N 
ATOM     12  C   UNL     1     -45.624  -6.942 -31.436  0.00  0.00    +0.000 A 
ATOM     13  C   UNL     1     -44.432  -7.627 -31.736  0.00  0.00    +0.000 A 
ATOM     14  C   UNL     1     -44.452  -8.741 -32.581  0.00  0.00    +0.000 A 
ATOM     15  C   UNL     1     -45.656  -9.177 -33.139  0.00  0.00    +0.000 A 
ATOM     16  C   UNL     1     -46.845  -8.504 -32.848  0.00  0.00    +0.000 A 
ATOM     17  C   UNL     1     -46.829  -7.395 -31.997  0.00  0.00    +0.000 A 
ATOM     18  N   UNL     1     -43.201  -7.202 -31.154  0.00  0.00    +0.000 N 
ATOM     19  C   UNL     1     -43.143  -6.007 -30.377  0.00  0.00    +0.000 C 
ATOM     20  O   UNL     1     -42.074  -5.689 -29.796  0.00  0.00    +0.000 OA
ATOM     21  C   UNL     1     -44.328  -5.093 -30.310  0.00  0.00    +0.000 C 
ATOM     22  O   UNL     1     -47.756  -4.991 -30.780  0.00  0.00    +0.000 OA
ATOM     23  H   UNL     1     -42.386  -7.737 -31.291  0.00  0.00    +0.000 HD
ENDBRANCH   9  10
BRANCH   1  24
ATOM     24  C   UNL     1     -46.588  -7.135 -27.417  0.00  0.00    +0.000 C 
BRANCH  24  25
ATOM     25  S   UNL     1     -44.832  -7.524 -27.148  0.00  0.00    +0.000 S 
BRANCH  25  29
ATOM     26  C   UNL     1     -45.866 -11.878 -30.528  0.00  0.00    +0.000 C 
ATOM     27  C   UNL     1     -45.318 -10.773 -29.701  0.00  0.00    +0.000 A 
ATOM     28  S   UNL     1     -46.248  -9.675 -28.828  0.00  0.00    +0.000 S 
ATOM     29  C   UNL     1     -44.854  -8.904 -28.283  0.00  0.00    +0.000 A 
ATOM     30  N   UNL     1     -43.738  -9.493 -28.766  0.00  0.00    +0.000 NA
ATOM     31  N   UNL     1     -43.997 -10.532 -29.558  0.00  0.00    +0.000 NA
ENDBRANCH  25  29
ENDBRANCH  24  25
ENDBRANCH   1  24
TORSDOF 4
ENDMDL
MODEL 2
REMARK VINA RESULT:      -6.4      3.332      5.320
REMARK  Name = ZINC000063474270 CSC027367595 MCULE-3459856010 MolPort-020-069-293
REMARK  4 active torsions:
REMARK  status: ('A' for Active; 'I' for Inactive)
REMARK    1  A    between atoms: C_1  and  C_24
REMARK    2  A    between atoms: C_9  and  C_10
REMARK    3  A    between atoms: C_24  and  S_25
REMARK    4  A    between atoms: S_25  and  C_29
REMARK                            x       y       z     vdW  Elec       q    Type
REMARK                         _______ _______ _______ _____ _____    ______ ____
ROOT
ATOM      1  C   UNL     1     -43.680  -3.845 -31.768  0.00  0.00    +0.000 A 
ATOM      2  C   UNL     1     -43.001  -2.698 -32.115  0.00  0.00    +0.000 A 
ATOM      3  C   UNL     1     -43.920  -1.684 -32.124  0.00  0.00    +0.000 A 
ATOM      4  C   UNL     1     -43.565  -0.372 -32.429  0.00  0.00    +0.000 A 
ATOM      5  C   UNL     1     -42.215  -0.118 -32.733  0.00  0.00    +0.000 A 
ATOM      6  C   UNL     1     -41.266  -1.164 -32.723  0.00  0.00    +0.000 A 
ATOM      7  C   UNL     1     -41.656  -2.479 -32.410  0.00  0.00    +0.000 A 
ATOM      8  O   UNL     1     -45.111  -2.136 -31.814  0.00  0.00    +0.000 OA
ATOM      9  C   UNL     1     -45.009  -3.437 -31.600  0.00  0.00    +0.000 A 
ENDROOT
BRANCH   9  10
ATOM     10  C   UNL     1     -46.165  -4.272 -31.224  0.00  0.00    +0.000 C 
ATOM     11  N   UNL     1     -46.523  -5.447 -31.970  0.00  0.00    +0.000 N 
ATOM     12  C   UNL     1     -46.914  -6.676 -31.315  0.00  0.00    +0.000 A 
ATOM     13  C   UNL     1     -47.034  -7.855 -32.074  0.00  0.00    +0.000 A 
ATOM     14  C   UNL     1     -47.372  -9.062 -31.456  0.00  0.00    +0.000 A 
ATOM     15  C   UNL     1     -47.599  -9.104 -30.078  0.00  0.00    +0.000 A 
ATOM     16  C   UNL     1     -47.483  -7.940 -29.315  0.00  0.00    +0.000 A 
ATOM     17  C   UNL     1     -47.137  -6.733 -29.930  0.00  0.00    +0.000 A 
ATOM     18  N   UNL     1     -46.782  -7.825 -33.478  0.00  0.00    +0.000 N 
ATOM     19  C   UNL     1     -46.542  -6.587 -34.144  0.00  0.00    +0.000 C 
ATOM     20  O   UNL     1     -46.233  -6.582 -35.364  0.00  0.00    +0.000 OA
ATOM     21  C   UNL     1     -46.724  -5.291 -33.416  0.00  0.00    +0.000 C 
ATOM     22  O   UNL     1     -46.872  -3.914 -30.243  0.00  0.00    +0.000 OA
ATOM     23  H   UNL     1     -46.776  -8.666 -33.991  0.00  0.00    +0.000 HD
ENDBRANCH   9  10
BRANCH   1  24
ATOM     24  C   UNL     1     -43.099  -5.211 -31.584  0.00  0.00    +0.000 C 
BRANCH  24  25
ATOM     25  S   UNL     1     -42.824  -6.026 -33.187  0.00  0.00    +0.000 S 
BRANCH  25  29
ATOM     26  C   UNL     1     -44.110 -10.729 -30.416  0.00  0.00    +0.000 C 
ATOM     27  C   UNL     1     -43.854  -9.629 -31.382  0.00  0.00    +0.000 A 
ATOM     28  S   UNL     1     -43.333  -8.086 -30.962  0.00  0.00    +0.000 S 
ATOM     29  C   UNL     1     -43.335  -7.628 -32.582  0.00  0.00    +0.000 A 
ATOM     30  N   UNL     1     -43.720  -8.643 -33.386  0.00  0.00    +0.000 NA
ATOM     31  N   UNL     1     -44.010  -9.757 -32.717  0.00  0.00    +0.000 NA
ENDBRANCH  25  29
ENDBRANCH  24  25
ENDBRANCH   1  24
TORSDOF 4
ENDMDL
MODEL 3
REMARK VINA RESULT:      -6.3      9.136     12.246
REMARK  Name = ZINC000063474270 CSC027367595 MCULE-3459856010 MolPort-020-069-293
REMARK  4 active torsions:
REMARK  status: ('A' for Active; 'I' for Inactive)
REMARK    1  A    between atoms: C_1  and  C_24
REMARK    2  A    between atoms: C_9  and  C_10
REMARK    3  A    between atoms: C_24  and  S_25
REMARK    4  A    between atoms: S_25  and  C_29
REMARK                            x       y       z     vdW  Elec       q    Type
REMARK                         _______ _______ _______ _____ _____    ______ ____
ROOT
ATOM      1  C   UNL     1     -44.853 -15.359 -26.475  0.00  0.00    +0.000 A 
ATOM      2  C   UNL     1     -45.190 -14.545 -27.533  0.00  0.00    +0.000 A 
ATOM      3  C   UNL     1     -46.297 -13.838 -27.148  0.00  0.00    +0.000 A 
ATOM      4  C   UNL     1     -46.902 -12.905 -27.987  0.00  0.00    +0.000 A 
ATOM      5  C   UNL     1     -46.334 -12.708 -29.259  0.00  0.00    +0.000 A 
ATOM      6  C   UNL     1     -45.190 -13.437 -29.656  0.00  0.00    +0.000 A 
ATOM      7  C   UNL     1     -44.601 -14.372 -28.786  0.00  0.00    +0.000 A 
ATOM      8  O   UNL     1     -46.661 -14.172 -25.934  0.00  0.00    +0.000 OA
ATOM      9  C   UNL     1     -45.819 -15.094 -25.497  0.00  0.00    +0.000 A 
ENDROOT
BRANCH   9  10
ATOM     10  C   UNL     1     -45.930 -15.696 -24.155  0.00  0.00    +0.000 C 
ATOM     11  N   UNL     1     -45.568 -17.065 -23.910  0.00  0.00    +0.000 N 
ATOM     12  C   UNL     1     -44.815 -17.456 -22.738  0.00  0.00    +0.000 A 
ATOM     13  C   UNL     1     -44.293 -18.761 -22.657  0.00  0.00    +0.000 A 
ATOM     14  C   UNL     1     -43.529 -19.148 -21.552  0.00  0.00    +0.000 A 
ATOM     15  C   UNL     1     -43.285 -18.242 -20.516  0.00  0.00    +0.000 A 
ATOM     16  C   UNL     1     -43.799 -16.945 -20.587  0.00  0.00    +0.000 A 
ATOM     17  C   UNL     1     -44.556 -16.553 -21.695  0.00  0.00    +0.000 A 
ATOM     18  N   UNL     1     -44.520 -19.685 -23.720  0.00  0.00    +0.000 N 
ATOM     19  C   UNL     1     -45.383 -19.345 -24.803  0.00  0.00    +0.000 C 
ATOM     20  O   UNL     1     -45.505 -20.131 -25.777  0.00  0.00    +0.000 OA
ATOM     21  C   UNL     1     -46.199 -18.090 -24.751  0.00  0.00    +0.000 C 
ATOM     22  O   UNL     1     -46.391 -14.992 -23.216  0.00  0.00    +0.000 OA
ATOM     23  H   UNL     1     -44.077 -20.565 -23.704  0.00  0.00    +0.000 HD
ENDBRANCH   9  10
BRANCH   1  24
ATOM     24  C   UNL     1     -43.687 -16.294 -26.397  0.00  0.00    +0.000 C 
BRANCH  24  25
ATOM     25  S   UNL     1     -42.330 -15.568 -25.428  0.00  0.00    +0.000 S 
BRANCH  25  29
ATOM     26  C   UNL     1     -39.975 -20.020 -22.963  0.00  0.00    +0.000 C 
ATOM     27  C   UNL     1     -40.725 -19.035 -23.785  0.00  0.00    +0.000 A 
ATOM     28  S   UNL     1     -40.731 -17.373 -23.523  0.00  0.00    +0.000 S 
ATOM     29  C   UNL     1     -41.760 -17.154 -24.837  0.00  0.00    +0.000 A 
ATOM     30  N   UNL     1     -42.064 -18.328 -25.433  0.00  0.00    +0.000 NA
ATOM     31  N   UNL     1     -41.489 -19.375 -24.845  0.00  0.00    +0.000 NA
ENDBRANCH  25  29
ENDBRANCH  24  25
ENDBRANCH   1  24
TORSDOF 4
ENDMDL
