MODEL 1
REMARK VINA RESULT:      -7.0      0.000      0.000
REMARK  Name = ZINC000040009606 ZINC40009606 CSC027005518 MCULE-5704859829 MolPort-009-402-766 PubChem-45858595
REMARK  3 active torsions:
REMARK  status: ('A' for Active; 'I' for Inactive)
REMARK    1  A    between atoms: C_1  and  C_2
REMARK    2  A    between atoms: C_1  and  C_16
REMARK    3  A    between atoms: C_16  and  C_26
REMARK                            x       y       z     vdW  Elec       q    Type
REMARK                         _______ _______ _______ _____ _____    ______ ____
ROOT
ATOM      1  C   UNL     1     -45.078 -16.134 -23.353  0.00  0.00    +0.000 C 
ENDROOT
BRANCH   1   2
ATOM      2  C   UNL     1     -45.701 -15.634 -24.617  0.00  0.00    +0.000 C 
ATOM      3  O   UNL     1     -46.947 -15.451 -24.635  0.00  0.00    +0.000 OA
ATOM      4  N   UNL     1     -44.910 -15.405 -25.801  0.00  0.00    +0.000 N 
ATOM      5  C   UNL     1     -43.577 -16.018 -25.879  0.00  0.00    +0.000 C 
ATOM      6  C   UNL     1     -43.217 -16.379 -27.287  0.00  0.00    +0.000 C 
ATOM      7  O   UNL     1     -42.380 -17.294 -27.505  0.00  0.00    +0.000 OA
ATOM      8  N   UNL     1     -43.765 -15.641 -28.378  0.00  0.00    +0.000 N 
ATOM      9  C   UNL     1     -44.786 -14.670 -28.151  0.00  0.00    +0.000 A 
ATOM     10  C   UNL     1     -45.220 -13.859 -29.204  0.00  0.00    +0.000 A 
ATOM     11  C   UNL     1     -46.218 -12.907 -28.989  0.00  0.00    +0.000 A 
ATOM     12  C   UNL     1     -46.788 -12.766 -27.721  0.00  0.00    +0.000 A 
ATOM     13  C   UNL     1     -46.363 -13.581 -26.669  0.00  0.00    +0.000 A 
ATOM     14  C   UNL     1     -45.363 -14.546 -26.874  0.00  0.00    +0.000 A 
ATOM     15  H   UNL     1     -43.437 -15.802 -29.293  0.00  0.00    +0.000 HD
ENDBRANCH   1   2
BRANCH   1  16
ATOM     16  C   UNL     1     -45.751 -17.422 -22.913  0.00  0.00    +0.000 C 
BRANCH  16  26
ATOM     17  C   UNL     1     -40.506 -22.227 -21.201  0.00  0.00    +0.000 C 
ATOM     18  C   UNL     1     -41.575 -21.421 -21.846  0.00  0.00    +0.000 A 
ATOM     19  N   UNL     1     -42.200 -20.391 -21.232  0.00  0.00    +0.000 NA
ATOM     20  N   UNL     1     -43.074 -19.927 -22.105  0.00  0.00    +0.000 N 
ATOM     21  C   UNL     1     -43.006 -20.638 -23.235  0.00  0.00    +0.000 A 
ATOM     22  C   UNL     1     -42.052 -21.629 -23.141  0.00  0.00    +0.000 A 
ATOM     23  N   UNL     1     -43.802 -20.362 -24.295  0.00  0.00    +0.000 NA
ATOM     24  C   UNL     1     -44.694 -19.334 -24.207  0.00  0.00    +0.000 A 
ATOM     25  C   UNL     1     -45.565 -19.042 -25.382  0.00  0.00    +0.000 C 
ATOM     26  C   UNL     1     -44.789 -18.567 -23.016  0.00  0.00    +0.000 A 
ATOM     27  C   UNL     1     -43.935 -18.891 -21.941  0.00  0.00    +0.000 A 
ATOM     28  C   UNL     1     -43.967 -18.130 -20.653  0.00  0.00    +0.000 C 
ENDBRANCH  16  26
ENDBRANCH   1  16
TORSDOF 3
ENDMDL
MODEL 2
REMARK VINA RESULT:      -6.9     11.695     16.434
REMARK  Name = ZINC000040009606 ZINC40009606 CSC027005518 MCULE-5704859829 MolPort-009-402-766 PubChem-45858595
REMARK  3 active torsions:
REMARK  status: ('A' for Active; 'I' for Inactive)
REMARK    1  A    between atoms: C_1  and  C_2
REMARK    2  A    between atoms: C_1  and  C_16
REMARK    3  A    between atoms: C_16  and  C_26
REMARK                            x       y       z     vdW  Elec       q    Type
REMARK                         _______ _______ _______ _____ _____    ______ ____
ROOT
ATOM      1  C   UNL     1     -46.045  -2.931 -31.877  0.00  0.00    +0.000 C 
ENDROOT
BRANCH   1   2
ATOM      2  C   UNL     1     -46.709  -4.270 -31.904  0.00  0.00    +0.000 C 
ATOM      3  O   UNL     1     -47.350  -4.597 -32.938  0.00  0.00    +0.000 OA
ATOM      4  N   UNL     1     -46.657  -5.154 -30.765  0.00  0.00    +0.000 N 
ATOM      5  C   UNL     1     -46.285  -4.589 -29.461  0.00  0.00    +0.000 C 
ATOM      6  C   UNL     1     -46.977  -5.296 -28.335  0.00  0.00    +0.000 C 
ATOM      7  O   UNL     1     -47.162  -4.701 -27.242  0.00  0.00    +0.000 OA
ATOM      8  N   UNL     1     -47.361  -6.662 -28.477  0.00  0.00    +0.000 N 
ATOM      9  C   UNL     1     -47.246  -7.317 -29.740  0.00  0.00    +0.000 A 
ATOM     10  C   UNL     1     -47.496  -8.689 -29.835  0.00  0.00    +0.000 A 
ATOM     11  C   UNL     1     -47.385  -9.337 -31.068  0.00  0.00    +0.000 A 
ATOM     12  C   UNL     1     -47.027  -8.612 -32.208  0.00  0.00    +0.000 A 
ATOM     13  C   UNL     1     -46.785  -7.239 -32.117  0.00  0.00    +0.000 A 
ATOM     14  C   UNL     1     -46.899  -6.575 -30.884  0.00  0.00    +0.000 A 
ATOM     15  H   UNL     1     -47.707  -7.157 -27.698  0.00  0.00    +0.000 HD
ENDBRANCH   1   2
BRANCH   1  16
ATOM     16  C   UNL     1     -45.452  -2.615 -33.239  0.00  0.00    +0.000 C 
BRANCH  16  26
ATOM     17  C   UNL     1     -38.901   0.361 -31.908  0.00  0.00    +0.000 C 
ATOM     18  C   UNL     1     -40.046  -0.511 -32.280  0.00  0.00    +0.000 A 
ATOM     19  N   UNL     1     -41.338  -0.138 -32.146  0.00  0.00    +0.000 NA
ATOM     20  N   UNL     1     -42.055  -1.159 -32.574  0.00  0.00    +0.000 N 
ATOM     21  C   UNL     1     -41.246  -2.148 -32.969  0.00  0.00    +0.000 A 
ATOM     22  C   UNL     1     -39.922  -1.799 -32.807  0.00  0.00    +0.000 A 
ATOM     23  N   UNL     1     -41.735  -3.313 -33.454  0.00  0.00    +0.000 NA
ATOM     24  C   UNL     1     -43.085  -3.482 -33.543  0.00  0.00    +0.000 A 
ATOM     25  C   UNL     1     -43.609  -4.771 -34.080  0.00  0.00    +0.000 C 
ATOM     26  C   UNL     1     -43.966  -2.450 -33.128  0.00  0.00    +0.000 A 
ATOM     27  C   UNL     1     -43.408  -1.252 -32.632  0.00  0.00    +0.000 A 
ATOM     28  C   UNL     1     -44.265  -0.113 -32.177  0.00  0.00    +0.000 C 
ENDBRANCH  16  26
ENDBRANCH   1  16
TORSDOF 3
ENDMDL
MODEL 3
REMARK VINA RESULT:      -6.9      8.634     12.561
REMARK  Name = ZINC000040009606 ZINC40009606 CSC027005518 MCULE-5704859829 MolPort-009-402-766 PubChem-45858595
REMARK  3 active torsions:
REMARK  status: ('A' for Active; 'I' for Inactive)
REMARK    1  A    between atoms: C_1  and  C_2
REMARK    2  A    between atoms: C_1  and  C_16
REMARK    3  A    between atoms: C_16  and  C_26
REMARK                            x       y       z     vdW  Elec       q    Type
REMARK                         _______ _______ _______ _____ _____    ______ ____
ROOT
ATOM      1  C   UNL     1     -45.743  -5.679 -29.273  0.00  0.00    +0.000 C 
ENDROOT
BRANCH   1   2
ATOM      2  C   UNL     1     -45.756  -4.527 -30.226  0.00  0.00    +0.000 C 
ATOM      3  O   UNL     1     -46.674  -3.672 -30.116  0.00  0.00    +0.000 OA
ATOM      4  N   UNL     1     -44.771  -4.413 -31.274  0.00  0.00    +0.000 N 
ATOM      5  C   UNL     1     -44.000  -5.609 -31.639  0.00  0.00    +0.000 C 
ATOM      6  C   UNL     1     -43.649  -5.617 -33.096  0.00  0.00    +0.000 C 
ATOM      7  O   UNL     1     -43.423  -6.709 -33.680  0.00  0.00    +0.000 OA
ATOM      8  N   UNL     1     -43.502  -4.387 -33.803  0.00  0.00    +0.000 N 
ATOM      9  C   UNL     1     -43.850  -3.151 -33.181  0.00  0.00    +0.000 A 
ATOM     10  C   UNL     1     -43.575  -1.944 -33.832  0.00  0.00    +0.000 A 
ATOM     11  C   UNL     1     -43.913  -0.731 -33.229  0.00  0.00    +0.000 A 
ATOM     12  C   UNL     1     -44.529  -0.721 -31.975  0.00  0.00    +0.000 A 
ATOM     13  C   UNL     1     -44.813  -1.926 -31.326  0.00  0.00    +0.000 A 
ATOM     14  C   UNL     1     -44.483  -3.153 -31.924  0.00  0.00    +0.000 A 
ATOM     15  H   UNL     1     -43.157  -4.391 -34.726  0.00  0.00    +0.000 HD
ENDBRANCH   1   2
BRANCH   1  16
ATOM     16  C   UNL     1     -47.123  -6.307 -29.196  0.00  0.00    +0.000 C 
BRANCH  16  26
ATOM     17  C   UNL     1     -46.366 -13.412 -27.617  0.00  0.00    +0.000 C 
ATOM     18  C   UNL     1     -46.539 -12.083 -28.259  0.00  0.00    +0.000 A 
ATOM     19  N   UNL     1     -46.591 -10.924 -27.565  0.00  0.00    +0.000 NA
ATOM     20  N   UNL     1     -46.749  -9.971 -28.464  0.00  0.00    +0.000 N 
ATOM     21  C   UNL     1     -46.795 -10.507 -29.688  0.00  0.00    +0.000 A 
ATOM     22  C   UNL     1     -46.665 -11.878 -29.635  0.00  0.00    +0.000 A 
ATOM     23  N   UNL     1     -46.952  -9.739 -30.792  0.00  0.00    +0.000 NA
ATOM     24  C   UNL     1     -47.063  -8.387 -30.652  0.00  0.00    +0.000 A 
ATOM     25  C   UNL     1     -47.235  -7.554 -31.877  0.00  0.00    +0.000 C 
ATOM     26  C   UNL     1     -47.021  -7.794 -29.363  0.00  0.00    +0.000 A 
ATOM     27  C   UNL     1     -46.853  -8.636 -28.243  0.00  0.00    +0.000 A 
ATOM     28  C   UNL     1     -46.794  -8.092 -26.851  0.00  0.00    +0.000 C 
ENDBRANCH  16  26
ENDBRANCH   1  16
TORSDOF 3
ENDMDL
