MODEL 1
REMARK VINA RESULT:      -7.3      0.000      0.000
REMARK  Name = ZINC000012772569 CSC027018696 MCULE-2308435649 MolPort-005-665-378
REMARK  4 active torsions:
REMARK  status: ('A' for Active; 'I' for Inactive)
REMARK    1  A    between atoms: C_1  and  C_19
REMARK    2  A    between atoms: N_18  and  C_23
REMARK    3  A    between atoms: C_22  and  O_32
REMARK    4  A    between atoms: C_25  and  N_28
REMARK                            x       y       z     vdW  Elec       q    Type
REMARK                         _______ _______ _______ _____ _____    ______ ____
ROOT
ATOM      1  C   UNL     1     -45.967  -7.469 -27.253  0.00  0.00    +0.000 A 
ATOM      2  C   UNL     1     -46.573  -7.140 -28.474  0.00  0.00    +0.000 A 
ATOM      3  C   UNL     1     -45.843  -6.494 -29.475  0.00  0.00    +0.000 A 
ATOM      4  C   UNL     1     -44.494  -6.162 -29.260  0.00  0.00    +0.000 A 
ATOM      5  C   UNL     1     -43.794  -5.513 -30.286  0.00  0.00    +0.000 A 
ATOM      6  N   UNL     1     -44.429  -5.221 -31.464  0.00  0.00    +0.000 N 
ATOM      7  C   UNL     1     -45.745  -5.565 -31.647  0.00  0.00    +0.000 A 
ATOM      8  N   UNL     1     -46.433  -6.188 -30.655  0.00  0.00    +0.000 NA
ATOM      9  C   UNL     1     -46.466  -5.245 -32.923  0.00  0.00    +0.000 C 
ATOM     10  C   UNL     1     -47.080  -3.851 -32.878  0.00  0.00    +0.000 C 
ATOM     11  C   UNL     1     -46.070  -2.777 -33.262  0.00  0.00    +0.000 C 
ATOM     12  C   UNL     1     -45.153  -2.459 -32.090  0.00  0.00    +0.000 C 
ATOM     13  C   UNL     1     -43.743  -3.003 -32.310  0.00  0.00    +0.000 C 
ATOM     14  C   UNL     1     -43.708  -4.516 -32.526  0.00  0.00    +0.000 C 
ATOM     15  O   UNL     1     -42.582  -5.199 -30.122  0.00  0.00    +0.000 OA
ATOM     16  C   UNL     1     -43.890  -6.476 -28.035  0.00  0.00    +0.000 A 
ATOM     17  C   UNL     1     -44.625  -7.122 -27.037  0.00  0.00    +0.000 A 
ENDROOT
BRANCH   1  19
ATOM     18  N   UNL     1     -47.678  -7.417 -25.364  0.00  0.00    +0.000 N 
ATOM     19  C   UNL     1     -46.754  -8.135 -26.194  0.00  0.00    +0.000 C 
ATOM     20  O   UNL     1     -46.653  -9.382 -26.043  0.00  0.00    +0.000 OA
ATOM     21  H   UNL     1     -48.520  -7.872 -25.133  0.00  0.00    +0.000 HD
BRANCH  18  23
ATOM     22  C   UNL     1     -47.220  -5.926 -23.472  0.00  0.00    +0.000 A 
ATOM     23  C   UNL     1     -47.485  -6.095 -24.840  0.00  0.00    +0.000 A 
ATOM     24  C   UNL     1     -47.500  -4.976 -25.687  0.00  0.00    +0.000 A 
ATOM     25  C   UNL     1     -47.285  -3.688 -25.180  0.00  0.00    +0.000 A 
ATOM     26  C   UNL     1     -47.036  -3.525 -23.812  0.00  0.00    +0.000 A 
ATOM     27  C   UNL     1     -47.001  -4.635 -22.965  0.00  0.00    +0.000 A 
BRANCH  25  28
ATOM     28  N   UNL     1     -47.321  -2.555 -26.057  0.00  0.00    +0.000 N 
ATOM     29  O   UNL     1     -47.359  -1.279 -25.541  0.00  0.00    +0.000 OA
ATOM     30  O   UNL     1     -47.312  -2.709 -27.295  0.00  0.00    +0.000 OA
ENDBRANCH  25  28
BRANCH  22  32
ATOM     31  C   UNL     1     -47.519  -6.992 -21.257  0.00  0.00    +0.000 C 
ATOM     32  O   UNL     1     -47.182  -7.048 -22.637  0.00  0.00    +0.000 OA
ENDBRANCH  22  32
ENDBRANCH  18  23
ENDBRANCH   1  19
TORSDOF 4
ENDMDL
MODEL 2
REMARK VINA RESULT:      -6.7      4.668      7.008
REMARK  Name = ZINC000012772569 CSC027018696 MCULE-2308435649 MolPort-005-665-378
REMARK  4 active torsions:
REMARK  status: ('A' for Active; 'I' for Inactive)
REMARK    1  A    between atoms: C_1  and  C_19
REMARK    2  A    between atoms: N_18  and  C_23
REMARK    3  A    between atoms: C_22  and  O_32
REMARK    4  A    between atoms: C_25  and  N_28
REMARK                            x       y       z     vdW  Elec       q    Type
REMARK                         _______ _______ _______ _____ _____    ______ ____
ROOT
ATOM      1  C   UNL     1     -45.857  -9.675 -32.283  0.00  0.00    +0.000 A 
ATOM      2  C   UNL     1     -44.862  -8.720 -32.538  0.00  0.00    +0.000 A 
ATOM      3  C   UNL     1     -45.038  -7.391 -32.142  0.00  0.00    +0.000 A 
ATOM      4  C   UNL     1     -46.222  -7.001 -31.492  0.00  0.00    +0.000 A 
ATOM      5  C   UNL     1     -46.364  -5.660 -31.112  0.00  0.00    +0.000 A 
ATOM      6  N   UNL     1     -45.358  -4.768 -31.375  0.00  0.00    +0.000 N 
ATOM      7  C   UNL     1     -44.211  -5.180 -32.005  0.00  0.00    +0.000 A 
ATOM      8  N   UNL     1     -44.068  -6.478 -32.383  0.00  0.00    +0.000 NA
ATOM      9  C   UNL     1     -43.101  -4.220 -32.315  0.00  0.00    +0.000 C 
ATOM     10  C   UNL     1     -43.317  -3.541 -33.662  0.00  0.00    +0.000 C 
ATOM     11  C   UNL     1     -44.236  -2.332 -33.544  0.00  0.00    +0.000 C 
ATOM     12  C   UNL     1     -45.693  -2.769 -33.481  0.00  0.00    +0.000 C 
ATOM     13  C   UNL     1     -46.279  -2.586 -32.082  0.00  0.00    +0.000 C 
ATOM     14  C   UNL     1     -45.518  -3.360 -31.005  0.00  0.00    +0.000 C 
ATOM     15  O   UNL     1     -47.417  -5.278 -30.528  0.00  0.00    +0.000 OA
ATOM     16  C   UNL     1     -47.224  -7.950 -31.250  0.00  0.00    +0.000 A 
ATOM     17  C   UNL     1     -47.043  -9.277 -31.647  0.00  0.00    +0.000 A 
ENDROOT
BRANCH   1  19
ATOM     18  N   UNL     1     -45.758 -12.178 -31.813  0.00  0.00    +0.000 N 
ATOM     19  C   UNL     1     -45.668 -11.073 -32.723  0.00  0.00    +0.000 C 
ATOM     20  O   UNL     1     -45.471 -11.313 -33.944  0.00  0.00    +0.000 OA
ATOM     21  H   UNL     1     -46.189 -12.998 -32.145  0.00  0.00    +0.000 HD
BRANCH  18  23
ATOM     22  C   UNL     1     -43.904 -12.006 -30.217  0.00  0.00    +0.000 A 
ATOM     23  C   UNL     1     -45.273 -12.196 -30.463  0.00  0.00    +0.000 A 
ATOM     24  C   UNL     1     -46.158 -12.343 -29.383  0.00  0.00    +0.000 A 
ATOM     25  C   UNL     1     -45.689 -12.333 -28.063  0.00  0.00    +0.000 A 
ATOM     26  C   UNL     1     -44.320 -12.158 -27.826  0.00  0.00    +0.000 A 
ATOM     27  C   UNL     1     -43.435 -11.993 -28.893  0.00  0.00    +0.000 A 
BRANCH  25  28
ATOM     28  N   UNL     1     -46.604 -12.502 -26.973  0.00  0.00    +0.000 N 
ATOM     29  O   UNL     1     -46.633 -13.683 -26.267  0.00  0.00    +0.000 OA
ATOM     30  O   UNL     1     -47.380 -11.580 -26.647  0.00  0.00    +0.000 OA
ENDBRANCH  25  28
BRANCH  22  32
ATOM     31  C   UNL     1     -41.863 -11.028 -31.221  0.00  0.00    +0.000 C 
ATOM     32  O   UNL     1     -43.031 -11.836 -31.296  0.00  0.00    +0.000 OA
ENDBRANCH  22  32
ENDBRANCH  18  23
ENDBRANCH   1  19
TORSDOF 4
ENDMDL
MODEL 3
REMARK VINA RESULT:      -6.6     11.377     15.422
REMARK  Name = ZINC000012772569 CSC027018696 MCULE-2308435649 MolPort-005-665-378
REMARK  4 active torsions:
REMARK  status: ('A' for Active; 'I' for Inactive)
REMARK    1  A    between atoms: C_1  and  C_19
REMARK    2  A    between atoms: N_18  and  C_23
REMARK    3  A    between atoms: C_22  and  O_32
REMARK    4  A    between atoms: C_25  and  N_28
REMARK                            x       y       z     vdW  Elec       q    Type
REMARK                         _______ _______ _______ _____ _____    ______ ____
ROOT
ATOM      1  C   UNL     1     -45.014 -18.799 -23.583  0.00  0.00    +0.000 A 
ATOM      2  C   UNL     1     -43.930 -19.583 -23.161  0.00  0.00    +0.000 A 
ATOM      3  C   UNL     1     -43.549 -19.597 -21.817  0.00  0.00    +0.000 A 
ATOM      4  C   UNL     1     -44.247 -18.817 -20.878  0.00  0.00    +0.000 A 
ATOM      5  C   UNL     1     -43.834 -18.855 -19.540  0.00  0.00    +0.000 A 
ATOM      6  N   UNL     1     -42.775 -19.643 -19.176  0.00  0.00    +0.000 N 
ATOM      7  C   UNL     1     -42.118 -20.400 -20.113  0.00  0.00    +0.000 A 
ATOM      8  N   UNL     1     -42.507 -20.363 -21.415  0.00  0.00    +0.000 NA
ATOM      9  C   UNL     1     -40.948 -21.261 -19.742  0.00  0.00    +0.000 C 
ATOM     10  C   UNL     1     -39.642 -20.478 -19.802  0.00  0.00    +0.000 C 
ATOM     11  C   UNL     1     -39.390 -19.702 -18.515  0.00  0.00    +0.000 C 
ATOM     12  C   UNL     1     -40.210 -18.421 -18.491  0.00  0.00    +0.000 C 
ATOM     13  C   UNL     1     -41.365 -18.505 -17.495  0.00  0.00    +0.000 C 
ATOM     14  C   UNL     1     -42.323 -19.661 -17.783  0.00  0.00    +0.000 C 
ATOM     15  O   UNL     1     -44.439 -18.163 -18.673  0.00  0.00    +0.000 OA
ATOM     16  C   UNL     1     -45.320 -18.021 -21.301  0.00  0.00    +0.000 A 
ATOM     17  C   UNL     1     -45.698 -18.012 -22.646  0.00  0.00    +0.000 A 
ENDROOT
BRANCH   1  19
ATOM     18  N   UNL     1     -44.778 -17.891 -25.953  0.00  0.00    +0.000 N 
ATOM     19  C   UNL     1     -45.396 -18.778 -25.011  0.00  0.00    +0.000 C 
ATOM     20  O   UNL     1     -46.257 -19.597 -25.431  0.00  0.00    +0.000 OA
ATOM     21  H   UNL     1     -44.601 -18.246 -26.854  0.00  0.00    +0.000 HD
BRANCH  18  23
ATOM     22  C   UNL     1     -43.043 -16.165 -25.795  0.00  0.00    +0.000 A 
ATOM     23  C   UNL     1     -44.394 -16.531 -25.701  0.00  0.00    +0.000 A 
ATOM     24  C   UNL     1     -45.360 -15.552 -25.417  0.00  0.00    +0.000 A 
ATOM     25  C   UNL     1     -44.989 -14.220 -25.198  0.00  0.00    +0.000 A 
ATOM     26  C   UNL     1     -43.637 -13.864 -25.279  0.00  0.00    +0.000 A 
ATOM     27  C   UNL     1     -42.672 -14.828 -25.578  0.00  0.00    +0.000 A 
BRANCH  25  28
ATOM     28  N   UNL     1     -45.986 -13.236 -24.892  0.00  0.00    +0.000 N 
ATOM     29  O   UNL     1     -46.256 -12.904 -23.584  0.00  0.00    +0.000 OA
ATOM     30  O   UNL     1     -46.616 -12.666 -25.806  0.00  0.00    +0.000 OA
ENDBRANCH  25  28
BRANCH  22  32
ATOM     31  C   UNL     1     -41.227 -17.709 -25.125  0.00  0.00    +0.000 C 
ATOM     32  O   UNL     1     -42.088 -17.140 -26.103  0.00  0.00    +0.000 OA
ENDBRANCH  22  32
ENDBRANCH  18  23
ENDBRANCH   1  19
TORSDOF 4
ENDMDL
