MODEL 1
REMARK VINA RESULT:      -7.6      0.000      0.000
REMARK  Name = ZINC000032678714 ZINC32678714 CSC028068244 MCULE-2237337451 MolPort-005-701-896 PubChem-39911757
REMARK  4 active torsions:
REMARK  status: ('A' for Active; 'I' for Inactive)
REMARK    1  A    between atoms: C_1  and  N_19
REMARK    2  A    between atoms: C_5  and  C_7
REMARK    3  A    between atoms: C_17  and  C_25
REMARK    4  A    between atoms: C_21  and  C_30
REMARK                            x       y       z     vdW  Elec       q    Type
REMARK                         _______ _______ _______ _____ _____    ______ ____
ROOT
ATOM      1  C   UNL     1     -47.348  -4.920 -30.799  0.00  0.00    +0.000 A 
ATOM      2  C   UNL     1     -46.914  -6.252 -30.884  0.00  0.00    +0.000 A 
ATOM      3  C   UNL     1     -46.544  -6.945 -29.729  0.00  0.00    +0.000 A 
ATOM      4  C   UNL     1     -46.616  -6.316 -28.483  0.00  0.00    +0.000 A 
ATOM      5  C   UNL     1     -47.061  -4.991 -28.385  0.00  0.00    +0.000 A 
ATOM      6  C   UNL     1     -47.431  -4.301 -29.548  0.00  0.00    +0.000 A 
ENDROOT
BRANCH   5   7
ATOM      7  C   UNL     1     -47.140  -4.329 -27.072  0.00  0.00    +0.000 A 
ATOM      8  N   UNL     1     -47.274  -2.982 -26.933  0.00  0.00    +0.000 NA
ATOM      9  C   UNL     1     -47.302  -2.827 -25.602  0.00  0.00    +0.000 A 
ATOM     10  C   UNL     1     -47.426  -1.640 -24.886  0.00  0.00    +0.000 A 
ATOM     11  C   UNL     1     -47.430  -1.729 -23.481  0.00  0.00    +0.000 A 
ATOM     12  C   UNL     1     -47.313  -2.984 -22.842  0.00  0.00    +0.000 A 
ATOM     13  C   UNL     1     -47.189  -4.163 -23.599  0.00  0.00    +0.000 A 
ATOM     14  C   UNL     1     -47.189  -4.036 -24.985  0.00  0.00    +0.000 A 
ATOM     15  N   UNL     1     -47.083  -5.013 -25.897  0.00  0.00    +0.000 N 
ATOM     16  H   UNL     1     -46.989  -5.982 -25.753  0.00  0.00    +0.000 HD
ENDBRANCH   5   7
BRANCH   1  19
ATOM     17  C   UNL     1     -46.929  -3.888 -33.096  0.00  0.00    +0.000 C 
ATOM     18  O   UNL     1     -47.449  -3.880 -34.241  0.00  0.00    +0.000 OA
ATOM     19  N   UNL     1     -47.756  -4.190 -31.964  0.00  0.00    +0.000 N 
ATOM     20  H   UNL     1     -48.685  -3.868 -31.989  0.00  0.00    +0.000 HD
BRANCH  17  25
ATOM     21  C   UNL     1     -43.279  -3.715 -32.839  0.00  0.00    +0.000 A 
ATOM     22  C   UNL     1     -43.716  -2.426 -32.555  0.00  0.00    +0.000 A 
ATOM     23  C   UNL     1     -42.862  -1.256 -32.205  0.00  0.00    +0.000 C 
ATOM     24  N   UNL     1     -45.059  -2.339 -32.619  0.00  0.00    +0.000 N 
ATOM     25  C   UNL     1     -45.495  -3.567 -32.961  0.00  0.00    +0.000 A 
ATOM     26  C   UNL     1     -44.430  -4.445 -33.093  0.00  0.00    +0.000 A 
ATOM     27  C   UNL     1     -44.514  -5.915 -33.343  0.00  0.00    +0.000 C 
ATOM     28  H   UNL     1     -45.610  -1.540 -32.451  0.00  0.00    +0.000 HD
BRANCH  21  30
ATOM     29  C   UNL     1     -40.967  -3.967 -33.990  0.00  0.00    +0.000 C 
ATOM     30  C   UNL     1     -41.888  -4.228 -32.849  0.00  0.00    +0.000 C 
ATOM     31  O   UNL     1     -41.457  -4.904 -31.879  0.00  0.00    +0.000 OA
ENDBRANCH  21  30
ENDBRANCH  17  25
ENDBRANCH   1  19
TORSDOF 4
ENDMDL
MODEL 2
REMARK VINA RESULT:      -7.6      1.818      2.576
REMARK  Name = ZINC000032678714 ZINC32678714 CSC028068244 MCULE-2237337451 MolPort-005-701-896 PubChem-39911757
REMARK  4 active torsions:
REMARK  status: ('A' for Active; 'I' for Inactive)
REMARK    1  A    between atoms: C_1  and  N_19
REMARK    2  A    between atoms: C_5  and  C_7
REMARK    3  A    between atoms: C_17  and  C_25
REMARK    4  A    between atoms: C_21  and  C_30
REMARK                            x       y       z     vdW  Elec       q    Type
REMARK                         _______ _______ _______ _____ _____    ______ ____
ROOT
ATOM      1  C   UNL     1     -46.632  -7.317 -31.619  0.00  0.00    +0.000 A 
ATOM      2  C   UNL     1     -46.148  -8.609 -31.369  0.00  0.00    +0.000 A 
ATOM      3  C   UNL     1     -45.850  -9.008 -30.064  0.00  0.00    +0.000 A 
ATOM      4  C   UNL     1     -46.045  -8.122 -29.002  0.00  0.00    +0.000 A 
ATOM      5  C   UNL     1     -46.541  -6.833 -29.237  0.00  0.00    +0.000 A 
ATOM      6  C   UNL     1     -46.838  -6.439 -30.550  0.00  0.00    +0.000 A 
ENDROOT
BRANCH   5   7
ATOM      7  C   UNL     1     -46.749  -5.901 -28.117  0.00  0.00    +0.000 A 
ATOM      8  N   UNL     1     -46.968  -4.569 -28.297  0.00  0.00    +0.000 NA
ATOM      9  C   UNL     1     -47.098  -4.122 -27.041  0.00  0.00    +0.000 A 
ATOM     10  C   UNL     1     -47.339  -2.816 -26.624  0.00  0.00    +0.000 A 
ATOM     11  C   UNL     1     -47.437  -2.587 -25.238  0.00  0.00    +0.000 A 
ATOM     12  C   UNL     1     -47.295  -3.655 -24.323  0.00  0.00    +0.000 A 
ATOM     13  C   UNL     1     -47.053  -4.963 -24.783  0.00  0.00    +0.000 A 
ATOM     14  C   UNL     1     -46.962  -5.150 -26.159  0.00  0.00    +0.000 A 
ATOM     15  N   UNL     1     -46.738  -6.298 -26.815  0.00  0.00    +0.000 N 
ATOM     16  H   UNL     1     -46.600  -7.200 -26.448  0.00  0.00    +0.000 HD
ENDBRANCH   5   7
BRANCH   1  19
ATOM     17  C   UNL     1     -46.148  -6.075 -33.796  0.00  0.00    +0.000 C 
ATOM     18  O   UNL     1     -46.159  -6.292 -35.035  0.00  0.00    +0.000 OA
ATOM     19  N   UNL     1     -46.969  -6.886 -32.945  0.00  0.00    +0.000 N 
ATOM     20  H   UNL     1     -47.840  -7.172 -33.303  0.00  0.00    +0.000 HD
BRANCH  17  25
ATOM     21  C   UNL     1     -44.558  -2.988 -32.629  0.00  0.00    +0.000 A 
ATOM     22  C   UNL     1     -43.562  -3.955 -32.540  0.00  0.00    +0.000 A 
ATOM     23  C   UNL     1     -42.159  -3.745 -32.086  0.00  0.00    +0.000 C 
ATOM     24  N   UNL     1     -44.013  -5.160 -32.938  0.00  0.00    +0.000 N 
ATOM     25  C   UNL     1     -45.307  -4.981 -33.270  0.00  0.00    +0.000 A 
ATOM     26  C   UNL     1     -45.676  -3.655 -33.105  0.00  0.00    +0.000 A 
ATOM     27  C   UNL     1     -46.985  -3.042 -33.480  0.00  0.00    +0.000 C 
ATOM     28  H   UNL     1     -43.503  -6.001 -32.978  0.00  0.00    +0.000 HD
BRANCH  21  30
ATOM     29  C   UNL     1     -43.628  -0.618 -33.129  0.00  0.00    +0.000 C 
ATOM     30  C   UNL     1     -44.460  -1.544 -32.311  0.00  0.00    +0.000 C 
ATOM     31  O   UNL     1     -45.087  -1.069 -31.328  0.00  0.00    +0.000 OA
ENDBRANCH  21  30
ENDBRANCH  17  25
ENDBRANCH   1  19
TORSDOF 4
ENDMDL
MODEL 3
REMARK VINA RESULT:      -7.0      4.406      7.531
REMARK  Name = ZINC000032678714 ZINC32678714 CSC028068244 MCULE-2237337451 MolPort-005-701-896 PubChem-39911757
REMARK  4 active torsions:
REMARK  status: ('A' for Active; 'I' for Inactive)
REMARK    1  A    between atoms: C_1  and  N_19
REMARK    2  A    between atoms: C_5  and  C_7
REMARK    3  A    between atoms: C_17  and  C_25
REMARK    4  A    between atoms: C_21  and  C_30
REMARK                            x       y       z     vdW  Elec       q    Type
REMARK                         _______ _______ _______ _____ _____    ______ ____
ROOT
ATOM      1  C   UNL     1     -47.316  -7.628 -30.501  0.00  0.00    +0.000 A 
ATOM      2  C   UNL     1     -47.400  -8.513 -31.585  0.00  0.00    +0.000 A 
ATOM      3  C   UNL     1     -46.942  -8.125 -32.847  0.00  0.00    +0.000 A 
ATOM      4  C   UNL     1     -46.387  -6.856 -33.028  0.00  0.00    +0.000 A 
ATOM      5  C   UNL     1     -46.285  -5.968 -31.949  0.00  0.00    +0.000 A 
ATOM      6  C   UNL     1     -46.747  -6.364 -30.686  0.00  0.00    +0.000 A 
ENDROOT
BRANCH   5   7
ATOM      7  C   UNL     1     -45.696  -4.632 -32.140  0.00  0.00    +0.000 A 
ATOM      8  N   UNL     1     -44.856  -4.337 -33.169  0.00  0.00    +0.000 NA
ATOM      9  C   UNL     1     -44.573  -3.045 -32.954  0.00  0.00    +0.000 A 
ATOM     10  C   UNL     1     -43.749  -2.217 -33.711  0.00  0.00    +0.000 A 
ATOM     11  C   UNL     1     -43.602  -0.884 -33.284  0.00  0.00    +0.000 A 
ATOM     12  C   UNL     1     -44.275  -0.422 -32.130  0.00  0.00    +0.000 A 
ATOM     13  C   UNL     1     -45.101  -1.289 -31.390  0.00  0.00    +0.000 A 
ATOM     14  C   UNL     1     -45.221  -2.600 -31.842  0.00  0.00    +0.000 A 
ATOM     15  N   UNL     1     -45.945  -3.590 -31.301  0.00  0.00    +0.000 N 
ATOM     16  H   UNL     1     -46.514  -3.568 -30.498  0.00  0.00    +0.000 HD
ENDBRANCH   5   7
BRANCH   1  19
ATOM     17  C   UNL     1     -47.037  -8.843 -28.273  0.00  0.00    +0.000 C 
ATOM     18  O   UNL     1     -47.109  -8.595 -27.042  0.00  0.00    +0.000 OA
ATOM     19  N   UNL     1     -47.756  -8.005 -29.189  0.00  0.00    +0.000 N 
ATOM     20  H   UNL     1     -48.627  -7.659 -28.891  0.00  0.00    +0.000 HD
BRANCH  17  25
ATOM     21  C   UNL     1     -44.609 -11.273 -29.545  0.00  0.00    +0.000 A 
ATOM     22  C   UNL     1     -45.746 -12.022 -29.263  0.00  0.00    +0.000 A 
ATOM     23  C   UNL     1     -45.915 -13.488 -29.465  0.00  0.00    +0.000 C 
ATOM     24  N   UNL     1     -46.734 -11.248 -28.775  0.00  0.00    +0.000 N 
ATOM     25  C   UNL     1     -46.235  -9.997 -28.724  0.00  0.00    +0.000 A 
ATOM     26  C   UNL     1     -44.934  -9.970 -29.200  0.00  0.00    +0.000 A 
ATOM     27  C   UNL     1     -44.089  -8.757 -29.414  0.00  0.00    +0.000 C 
ATOM     28  H   UNL     1     -47.637 -11.537 -28.509  0.00  0.00    +0.000 HD
BRANCH  21  30
ATOM     29  C   UNL     1     -42.236 -12.282 -29.251  0.00  0.00    +0.000 C 
ATOM     30  C   UNL     1     -43.323 -11.741 -30.114  0.00  0.00    +0.000 C 
ATOM     31  O   UNL     1     -43.125 -11.686 -31.356  0.00  0.00    +0.000 OA
ENDBRANCH  21  30
ENDBRANCH  17  25
ENDBRANCH   1  19
TORSDOF 4
ENDMDL
