MODEL 1
REMARK VINA RESULT:      -6.5      0.000      0.000
REMARK  Name = ZINC000005372514 ZINC05372514 PubChem-92261926
REMARK  9 active torsions:
REMARK  status: ('A' for Active; 'I' for Inactive)
REMARK    1  A    between atoms: N_14  and  C_20
REMARK    2  A    between atoms: C_20  and  C_21
REMARK    3  A    between atoms: C_21  and  O_22
REMARK    4  A    between atoms: C_21  and  C_24
REMARK    5  A    between atoms: C_24  and  O_25
REMARK    6  A    between atoms: C_24  and  C_27
REMARK    7  A    between atoms: C_27  and  O_28
REMARK    8  A    between atoms: C_27  and  C_30
REMARK    9  A    between atoms: C_30  and  O_31
REMARK                            x       y       z     vdW  Elec       q    Type
REMARK                         _______ _______ _______ _____ _____    ______ ____
ROOT
ATOM      1  C   UNL     1     -45.879  -9.990 -36.112  0.00  0.00    +0.000 C 
ATOM      2  C   UNL     1     -46.100  -8.792 -35.252  0.00  0.00    +0.000 A 
ATOM      3  C   UNL     1     -46.352  -8.981 -33.891  0.00  0.00    +0.000 A 
ATOM      4  C   UNL     1     -46.564  -7.887 -33.049  0.00  0.00    +0.000 A 
ATOM      5  C   UNL     1     -46.818  -8.112 -31.701  0.00  0.00    +0.000 A 
ATOM      6  C   UNL     1     -47.037  -7.035 -30.849  0.00  0.00    +0.000 A 
ATOM      7  C   UNL     1     -47.305  -7.197 -29.485  0.00  0.00    +0.000 A 
ATOM      8  O   UNL     1     -47.351  -8.346 -28.969  0.00  0.00    +0.000 OA
ATOM      9  N   UNL     1     -47.518  -6.105 -28.704  0.00  0.00    +0.000 N 
ATOM     10  C   UNL     1     -47.486  -4.833 -29.191  0.00  0.00    +0.000 A 
ATOM     11  O   UNL     1     -47.694  -3.863 -28.417  0.00  0.00    +0.000 OA
ATOM     12  C   UNL     1     -47.224  -4.593 -30.541  0.00  0.00    +0.000 A 
ATOM     13  C   UNL     1     -46.989  -5.665 -31.410  0.00  0.00    +0.000 A 
ATOM     14  N   UNL     1     -46.725  -5.482 -32.743  0.00  0.00    +0.000 N 
ATOM     15  C   UNL     1     -46.522  -6.567 -33.566  0.00  0.00    +0.000 A 
ATOM     16  C   UNL     1     -46.272  -6.396 -34.939  0.00  0.00    +0.000 A 
ATOM     17  C   UNL     1     -46.061  -7.490 -35.779  0.00  0.00    +0.000 A 
ATOM     18  C   UNL     1     -45.797  -7.242 -37.226  0.00  0.00    +0.000 C 
ATOM     19  H   UNL     1     -47.705  -6.238 -27.747  0.00  0.00    +0.000 HD
ENDROOT
BRANCH  14  20
ATOM     20  C   UNL     1     -46.656  -4.121 -33.290  0.00  0.00    +0.000 C 
BRANCH  20  21
ATOM     21  C   UNL     1     -45.207  -3.635 -33.355  0.00  0.00    +0.000 C 
BRANCH  21  22
ATOM     22  O   UNL     1     -44.465  -4.213 -32.324  0.00  0.00    +0.000 OA
ATOM     23  H   UNL     1     -44.808  -3.910 -31.469  0.00  0.00    +0.000 HD
ENDBRANCH  21  22
BRANCH  21  24
ATOM     24  C   UNL     1     -45.103  -2.109 -33.266  0.00  0.00    +0.000 C 
BRANCH  24  25
ATOM     25  O   UNL     1     -44.312  -1.593 -34.295  0.00  0.00    +0.000 OA
ATOM     26  H   UNL     1     -44.426  -0.631 -34.340  0.00  0.00    +0.000 HD
ENDBRANCH  24  25
BRANCH  24  27
ATOM     27  C   UNL     1     -44.618  -1.590 -31.908  0.00  0.00    +0.000 C 
BRANCH  27  28
ATOM     28  O   UNL     1     -45.637  -1.589 -30.952  0.00  0.00    +0.000 OA
ATOM     29  H   UNL     1     -45.262  -1.390 -30.080  0.00  0.00    +0.000 HD
ENDBRANCH  27  28
BRANCH  27  30
ATOM     30  C   UNL     1     -43.957  -0.220 -32.006  0.00  0.00    +0.000 C 
BRANCH  30  31
ATOM     31  O   UNL     1     -42.566  -0.337 -32.054  0.00  0.00    +0.000 OA
ATOM     32  H   UNL     1     -42.272  -0.336 -32.978  0.00  0.00    +0.000 HD
ENDBRANCH  30  31
ENDBRANCH  27  30
ENDBRANCH  24  27
ENDBRANCH  21  24
ENDBRANCH  20  21
ENDBRANCH  14  20
TORSDOF 9
ENDMDL
MODEL 2
REMARK VINA RESULT:      -6.1     13.943     17.513
REMARK  Name = ZINC000005372514 ZINC05372514 PubChem-92261926
REMARK  9 active torsions:
REMARK  status: ('A' for Active; 'I' for Inactive)
REMARK    1  A    between atoms: N_14  and  C_20
REMARK    2  A    between atoms: C_20  and  C_21
REMARK    3  A    between atoms: C_21  and  O_22
REMARK    4  A    between atoms: C_21  and  C_24
REMARK    5  A    between atoms: C_24  and  O_25
REMARK    6  A    between atoms: C_24  and  C_27
REMARK    7  A    between atoms: C_27  and  O_28
REMARK    8  A    between atoms: C_27  and  C_30
REMARK    9  A    between atoms: C_30  and  O_31
REMARK                            x       y       z     vdW  Elec       q    Type
REMARK                         _______ _______ _______ _____ _____    ______ ____
ROOT
ATOM      1  C   UNL     1     -44.226 -17.504 -26.678  0.00  0.00    +0.000 C 
ATOM      2  C   UNL     1     -44.514 -17.562 -25.216  0.00  0.00    +0.000 A 
ATOM      3  C   UNL     1     -45.061 -16.437 -24.595  0.00  0.00    +0.000 A 
ATOM      4  C   UNL     1     -45.348 -16.448 -23.227  0.00  0.00    +0.000 A 
ATOM      5  C   UNL     1     -45.886 -15.308 -22.641  0.00  0.00    +0.000 A 
ATOM      6  C   UNL     1     -46.172 -15.301 -21.280  0.00  0.00    +0.000 A 
ATOM      7  C   UNL     1     -46.708 -14.182 -20.631  0.00  0.00    +0.000 A 
ATOM      8  O   UNL     1     -46.961 -13.125 -21.270  0.00  0.00    +0.000 OA
ATOM      9  N   UNL     1     -46.960 -14.233 -19.296  0.00  0.00    +0.000 N 
ATOM     10  C   UNL     1     -46.711 -15.338 -18.540  0.00  0.00    +0.000 A 
ATOM     11  O   UNL     1     -46.964 -15.322 -17.308  0.00  0.00    +0.000 OA
ATOM     12  C   UNL     1     -46.179 -16.492 -19.119  0.00  0.00    +0.000 A 
ATOM     13  C   UNL     1     -45.897 -16.522 -20.489  0.00  0.00    +0.000 A 
ATOM     14  N   UNL     1     -45.375 -17.630 -21.105  0.00  0.00    +0.000 N 
ATOM     15  C   UNL     1     -45.092 -17.607 -22.452  0.00  0.00    +0.000 A 
ATOM     16  C   UNL     1     -44.536 -18.730 -23.093  0.00  0.00    +0.000 A 
ATOM     17  C   UNL     1     -44.250 -18.716 -24.459  0.00  0.00    +0.000 A 
ATOM     18  C   UNL     1     -43.665 -19.939 -25.080  0.00  0.00    +0.000 C 
ATOM     19  H   UNL     1     -47.337 -13.437 -18.856  0.00  0.00    +0.000 HD
ENDROOT
BRANCH  14  20
ATOM     20  C   UNL     1     -45.124 -18.847 -20.321  0.00  0.00    +0.000 C 
BRANCH  20  21
ATOM     21  C   UNL     1     -43.636 -18.981 -19.990  0.00  0.00    +0.000 C 
BRANCH  21  22
ATOM     22  O   UNL     1     -43.123 -20.143 -20.566  0.00  0.00    +0.000 OA
ATOM     23  H   UNL     1     -43.655 -20.905 -20.288  0.00  0.00    +0.000 HD
ENDBRANCH  21  22
BRANCH  21  24
ATOM     24  C   UNL     1     -43.378 -19.003 -18.480  0.00  0.00    +0.000 C 
BRANCH  24  25
ATOM     25  O   UNL     1     -42.937 -17.760 -18.021  0.00  0.00    +0.000 OA
ATOM     26  H   UNL     1     -43.676 -17.287 -17.607  0.00  0.00    +0.000 HD
ENDBRANCH  24  25
BRANCH  24  27
ATOM     27  C   UNL     1     -42.425 -20.111 -18.021  0.00  0.00    +0.000 C 
BRANCH  27  28
ATOM     28  O   UNL     1     -43.088 -21.323 -17.812  0.00  0.00    +0.000 OA
ATOM     29  H   UNL     1     -42.570 -22.046 -18.201  0.00  0.00    +0.000 HD
ENDBRANCH  27  28
BRANCH  27  30
ATOM     30  C   UNL     1     -41.610 -19.713 -16.794  0.00  0.00    +0.000 C 
BRANCH  30  31
ATOM     31  O   UNL     1     -42.444 -19.371 -15.728  0.00  0.00    +0.000 OA
ATOM     32  H   UNL     1     -43.365 -19.350 -16.031  0.00  0.00    +0.000 HD
ENDBRANCH  30  31
ENDBRANCH  27  30
ENDBRANCH  24  27
ENDBRANCH  21  24
ENDBRANCH  20  21
ENDBRANCH  14  20
TORSDOF 9
ENDMDL
MODEL 3
REMARK VINA RESULT:      -5.9     11.982     15.984
REMARK  Name = ZINC000005372514 ZINC05372514 PubChem-92261926
REMARK  9 active torsions:
REMARK  status: ('A' for Active; 'I' for Inactive)
REMARK    1  A    between atoms: N_14  and  C_20
REMARK    2  A    between atoms: C_20  and  C_21
REMARK    3  A    between atoms: C_21  and  O_22
REMARK    4  A    between atoms: C_21  and  C_24
REMARK    5  A    between atoms: C_24  and  O_25
REMARK    6  A    between atoms: C_24  and  C_27
REMARK    7  A    between atoms: C_27  and  O_28
REMARK    8  A    between atoms: C_27  and  C_30
REMARK    9  A    between atoms: C_30  and  O_31
REMARK                            x       y       z     vdW  Elec       q    Type
REMARK                         _______ _______ _______ _____ _____    ______ ____
ROOT
ATOM      1  C   UNL     1     -46.255 -16.419 -18.814  0.00  0.00    +0.000 C 
ATOM      2  C   UNL     1     -45.959 -16.534 -20.271  0.00  0.00    +0.000 A 
ATOM      3  C   UNL     1     -46.074 -15.395 -21.071  0.00  0.00    +0.000 A 
ATOM      4  C   UNL     1     -45.805 -15.458 -22.441  0.00  0.00    +0.000 A 
ATOM      5  C   UNL     1     -45.935 -14.306 -23.208  0.00  0.00    +0.000 A 
ATOM      6  C   UNL     1     -45.677 -14.352 -24.574  0.00  0.00    +0.000 A 
ATOM      7  C   UNL     1     -45.797 -13.229 -25.399  0.00  0.00    +0.000 A 
ATOM      8  O   UNL     1     -46.144 -12.113 -24.925  0.00  0.00    +0.000 OA
ATOM      9  N   UNL     1     -45.539 -13.337 -26.730  0.00  0.00    +0.000 N 
ATOM     10  C   UNL     1     -45.161 -14.509 -27.314  0.00  0.00    +0.000 A 
ATOM     11  O   UNL     1     -44.938 -14.546 -28.551  0.00  0.00    +0.000 OA
ATOM     12  C   UNL     1     -45.019 -15.671 -26.553  0.00  0.00    +0.000 A 
ATOM     13  C   UNL     1     -45.262 -15.640 -25.175  0.00  0.00    +0.000 A 
ATOM     14  N   UNL     1     -45.135 -16.753 -24.384  0.00  0.00    +0.000 N 
ATOM     15  C   UNL     1     -45.406 -16.682 -23.037  0.00  0.00    +0.000 A 
ATOM     16  C   UNL     1     -45.301 -17.820 -22.217  0.00  0.00    +0.000 A 
ATOM     17  C   UNL     1     -45.570 -17.755 -20.849  0.00  0.00    +0.000 A 
ATOM     18  C   UNL     1     -45.437 -18.996 -20.034  0.00  0.00    +0.000 C 
ATOM     19  H   UNL     1     -45.628 -12.537 -27.296  0.00  0.00    +0.000 HD
ENDROOT
BRANCH  14  20
ATOM     20  C   UNL     1     -44.702 -18.023 -24.981  0.00  0.00    +0.000 C 
BRANCH  20  21
ATOM     21  C   UNL     1     -43.233 -18.301 -24.658  0.00  0.00    +0.000 C 
BRANCH  21  22
ATOM     22  O   UNL     1     -42.421 -17.832 -25.691  0.00  0.00    +0.000 OA
ATOM     23  H   UNL     1     -41.845 -17.128 -25.355  0.00  0.00    +0.000 HD
ENDBRANCH  21  22
BRANCH  21  24
ATOM     24  C   UNL     1     -42.961 -19.792 -24.432  0.00  0.00    +0.000 C 
BRANCH  24  25
ATOM     25  O   UNL     1     -44.143 -20.491 -24.178  0.00  0.00    +0.000 OA
ATOM     26  H   UNL     1     -44.786 -19.899 -23.758  0.00  0.00    +0.000 HD
ENDBRANCH  24  25
BRANCH  24  27
ATOM     27  C   UNL     1     -41.923 -20.084 -23.344  0.00  0.00    +0.000 C 
BRANCH  27  28
ATOM     28  O   UNL     1     -40.878 -19.157 -23.352  0.00  0.00    +0.000 OA
ATOM     29  H   UNL     1     -40.729 -18.846 -24.258  0.00  0.00    +0.000 HD
ENDBRANCH  27  28
BRANCH  27  30
ATOM     30  C   UNL     1     -41.391 -21.512 -23.410  0.00  0.00    +0.000 C 
BRANCH  30  31
ATOM     31  O   UNL     1     -42.361 -22.429 -22.998  0.00  0.00    +0.000 OA
ATOM     32  H   UNL     1     -42.195 -22.683 -22.077  0.00  0.00    +0.000 HD
ENDBRANCH  30  31
ENDBRANCH  27  30
ENDBRANCH  24  27
ENDBRANCH  21  24
ENDBRANCH  20  21
ENDBRANCH  14  20
TORSDOF 9
ENDMDL
