MODEL 1
REMARK VINA RESULT:      -7.2      0.000      0.000
REMARK  Name = ZINC000031810529
REMARK  1 active torsions:
REMARK  status: ('A' for Active; 'I' for Inactive)
REMARK    1  A    between atoms: C_7  and  C_24
REMARK                            x       y       z     vdW  Elec       q    Type
REMARK                         _______ _______ _______ _____ _____    ______ ____
ROOT
ATOM      1  C   UNL     1     -47.382  -4.494 -34.431  0.00  0.00    +0.000 C 
ATOM      2  C   UNL     1     -46.671  -5.631 -33.783  0.00  0.00    +0.000 A 
ATOM      3  N   UNL     1     -46.519  -6.835 -34.362  0.00  0.00    +0.000 NA
ATOM      4  N   UNL     1     -45.839  -7.599 -33.522  0.00  0.00    +0.000 N 
ATOM      5  C   UNL     1     -45.518  -6.890 -32.414  0.00  0.00    +0.000 A 
ATOM      6  C   UNL     1     -46.061  -5.612 -32.541  0.00  0.00    +0.000 A 
ATOM      7  C   UNL     1     -45.985  -4.403 -31.649  0.00  0.00    +0.000 C 
ATOM      8  S   UNL     1     -45.909  -4.770 -29.868  0.00  0.00    +0.000 S 
ATOM      9  C   UNL     1     -44.198  -5.347 -29.970  0.00  0.00    +0.000 C 
ATOM     10  C   UNL     1     -44.172  -6.814 -30.186  0.00  0.00    +0.000 C 
ATOM     11  O   UNL     1     -43.612  -7.535 -29.320  0.00  0.00    +0.000 OA
ATOM     12  N   UNL     1     -44.717  -7.436 -31.352  0.00  0.00    +0.000 N 
ATOM     13  H   UNL     1     -44.512  -8.395 -31.443  0.00  0.00    +0.000 HD
ATOM     14  C   UNL     1     -45.469  -8.949 -33.834  0.00  0.00    +0.000 A 
ATOM     15  N   UNL     1     -45.068  -9.275 -35.100  0.00  0.00    +0.000 NA
ATOM     16  C   UNL     1     -44.736 -10.561 -35.439  0.00  0.00    +0.000 A 
ATOM     17  N   UNL     1     -44.813 -11.563 -34.513  0.00  0.00    +0.000 NA
ATOM     18  C   UNL     1     -45.223 -11.247 -33.263  0.00  0.00    +0.000 A 
ATOM     19  N   UNL     1     -45.414 -12.096 -32.246  0.00  0.00    +0.000 N 
ATOM     20  C   UNL     1     -45.881 -11.278 -31.264  0.00  0.00    +0.000 A 
ATOM     21  N   UNL     1     -45.989  -9.973 -31.638  0.00  0.00    +0.000 NA
ATOM     22  C   UNL     1     -45.553  -9.988 -32.905  0.00  0.00    +0.000 A 
ATOM     23  H   UNL     1     -45.256 -13.067 -32.216  0.00  0.00    +0.000 HD
ENDROOT
BRANCH   7  24
ATOM     24  C   UNL     1     -45.003  -3.355 -32.096  0.00  0.00    +0.000 A 
ATOM     25  C   UNL     1     -43.930  -3.732 -32.912  0.00  0.00    +0.000 A 
ATOM     26  C   UNL     1     -43.009  -2.777 -33.351  0.00  0.00    +0.000 A 
ATOM     27  C   UNL     1     -43.157  -1.438 -32.980  0.00  0.00    +0.000 A 
ATOM     28  F   UNL     1     -42.260  -0.517 -33.411  0.00  0.00    +0.000 F 
ATOM     29  C   UNL     1     -44.230  -1.052 -32.168  0.00  0.00    +0.000 A 
ATOM     30  F   UNL     1     -44.382   0.245 -31.806  0.00  0.00    +0.000 F 
ATOM     31  C   UNL     1     -45.151  -2.007 -31.730  0.00  0.00    +0.000 A 
ENDBRANCH   7  24
TORSDOF 1
ENDMDL
MODEL 2
REMARK VINA RESULT:      -6.8      2.843      3.603
REMARK  Name = ZINC000031810529
REMARK  1 active torsions:
REMARK  status: ('A' for Active; 'I' for Inactive)
REMARK    1  A    between atoms: C_7  and  C_24
REMARK                            x       y       z     vdW  Elec       q    Type
REMARK                         _______ _______ _______ _____ _____    ______ ____
ROOT
ATOM      1  C   UNL     1     -42.970  -5.898 -34.826  0.00  0.00    +0.000 C 
ATOM      2  C   UNL     1     -43.737  -6.101 -33.565  0.00  0.00    +0.000 A 
ATOM      3  N   UNL     1     -43.614  -7.194 -32.791  0.00  0.00    +0.000 NA
ATOM      4  N   UNL     1     -44.426  -7.044 -31.757  0.00  0.00    +0.000 N 
ATOM      5  C   UNL     1     -45.052  -5.846 -31.835  0.00  0.00    +0.000 A 
ATOM      6  C   UNL     1     -44.643  -5.215 -33.009  0.00  0.00    +0.000 A 
ATOM      7  C   UNL     1     -44.972  -3.863 -33.581  0.00  0.00    +0.000 C 
ATOM      8  S   UNL     1     -46.654  -3.268 -33.221  0.00  0.00    +0.000 S 
ATOM      9  C   UNL     1     -46.256  -2.926 -31.490  0.00  0.00    +0.000 C 
ATOM     10  C   UNL     1     -46.585  -4.105 -30.652  0.00  0.00    +0.000 C 
ATOM     11  O   UNL     1     -47.441  -3.968 -29.739  0.00  0.00    +0.000 OA
ATOM     12  N   UNL     1     -45.944  -5.373 -30.812  0.00  0.00    +0.000 N 
ATOM     13  H   UNL     1     -46.148  -6.029 -30.108  0.00  0.00    +0.000 HD
ATOM     14  C   UNL     1     -44.525  -8.016 -30.707  0.00  0.00    +0.000 A 
ATOM     15  N   UNL     1     -43.404  -8.657 -30.259  0.00  0.00    +0.000 NA
ATOM     16  C   UNL     1     -43.468  -9.613 -29.278  0.00  0.00    +0.000 A 
ATOM     17  N   UNL     1     -44.669  -9.963 -28.729  0.00  0.00    +0.000 NA
ATOM     18  C   UNL     1     -45.783  -9.340 -29.180  0.00  0.00    +0.000 A 
ATOM     19  N   UNL     1     -47.044  -9.588 -28.807  0.00  0.00    +0.000 N 
ATOM     20  C   UNL     1     -47.756  -8.745 -29.603  0.00  0.00    +0.000 A 
ATOM     21  N   UNL     1     -46.989  -8.001 -30.446  0.00  0.00    +0.000 NA
ATOM     22  C   UNL     1     -45.744  -8.395 -30.144  0.00  0.00    +0.000 A 
ATOM     23  H   UNL     1     -47.372 -10.220 -28.128  0.00  0.00    +0.000 HD
ENDROOT
BRANCH   7  24
ATOM     24  C   UNL     1     -43.904  -2.822 -33.386  0.00  0.00    +0.000 A 
ATOM     25  C   UNL     1     -44.250  -1.469 -33.473  0.00  0.00    +0.000 A 
ATOM     26  C   UNL     1     -43.280  -0.480 -33.284  0.00  0.00    +0.000 A 
ATOM     27  C   UNL     1     -41.959  -0.839 -33.005  0.00  0.00    +0.000 A 
ATOM     28  F   UNL     1     -41.024   0.126 -32.823  0.00  0.00    +0.000 F 
ATOM     29  C   UNL     1     -41.606  -2.190 -32.912  0.00  0.00    +0.000 A 
ATOM     30  F   UNL     1     -40.327  -2.546 -32.639  0.00  0.00    +0.000 F 
ATOM     31  C   UNL     1     -42.575  -3.178 -33.100  0.00  0.00    +0.000 A 
ENDBRANCH   7  24
TORSDOF 1
ENDMDL
MODEL 3
REMARK VINA RESULT:      -6.8      4.706      7.450
REMARK  Name = ZINC000031810529
REMARK  1 active torsions:
REMARK  status: ('A' for Active; 'I' for Inactive)
REMARK    1  A    between atoms: C_7  and  C_24
REMARK                            x       y       z     vdW  Elec       q    Type
REMARK                         _______ _______ _______ _____ _____    ______ ____
ROOT
ATOM      1  C   UNL     1     -42.495  -6.760 -27.526  0.00  0.00    +0.000 C 
ATOM      2  C   UNL     1     -43.008  -6.097 -28.758  0.00  0.00    +0.000 A 
ATOM      3  N   UNL     1     -42.220  -5.726 -29.782  0.00  0.00    +0.000 NA
ATOM      4  N   UNL     1     -42.995  -5.181 -30.705  0.00  0.00    +0.000 N 
ATOM      5  C   UNL     1     -44.287  -5.225 -30.303  0.00  0.00    +0.000 A 
ATOM      6  C   UNL     1     -44.331  -5.795 -29.032  0.00  0.00    +0.000 A 
ATOM      7  C   UNL     1     -45.485  -6.132 -28.128  0.00  0.00    +0.000 C 
ATOM      8  S   UNL     1     -46.905  -5.000 -28.246  0.00  0.00    +0.000 S 
ATOM      9  C   UNL     1     -47.404  -5.653 -29.857  0.00  0.00    +0.000 C 
ATOM     10  C   UNL     1     -46.785  -4.853 -30.942  0.00  0.00    +0.000 C 
ATOM     11  O   UNL     1     -47.542  -4.254 -31.748  0.00  0.00    +0.000 OA
ATOM     12  N   UNL     1     -45.370  -4.769 -31.132  0.00  0.00    +0.000 N 
ATOM     13  H   UNL     1     -45.092  -4.325 -31.965  0.00  0.00    +0.000 HD
ATOM     14  C   UNL     1     -42.485  -4.699 -31.956  0.00  0.00    +0.000 A 
ATOM     15  N   UNL     1     -41.498  -5.390 -32.605  0.00  0.00    +0.000 NA
ATOM     16  C   UNL     1     -40.966  -4.942 -33.787  0.00  0.00    +0.000 A 
ATOM     17  N   UNL     1     -41.405  -3.773 -34.344  0.00  0.00    +0.000 NA
ATOM     18  C   UNL     1     -42.371  -3.080 -33.697  0.00  0.00    +0.000 A 
ATOM     19  N   UNL     1     -42.881  -1.896 -34.056  0.00  0.00    +0.000 N 
ATOM     20  C   UNL     1     -43.749  -1.631 -33.042  0.00  0.00    +0.000 A 
ATOM     21  N   UNL     1     -43.787  -2.595 -32.082  0.00  0.00    +0.000 NA
ATOM     22  C   UNL     1     -42.910  -3.502 -32.533  0.00  0.00    +0.000 A 
ATOM     23  H   UNL     1     -42.679  -1.354 -34.852  0.00  0.00    +0.000 HD
ENDROOT
BRANCH   7  24
ATOM     24  C   UNL     1     -45.867  -7.587 -28.115  0.00  0.00    +0.000 A 
ATOM     25  C   UNL     1     -46.631  -8.079 -27.050  0.00  0.00    +0.000 A 
ATOM     26  C   UNL     1     -47.010  -9.424 -27.017  0.00  0.00    +0.000 A 
ATOM     27  C   UNL     1     -46.630 -10.285 -28.050  0.00  0.00    +0.000 A 
ATOM     28  F   UNL     1     -47.002 -11.588 -28.012  0.00  0.00    +0.000 F 
ATOM     29  C   UNL     1     -45.870  -9.799 -29.120  0.00  0.00    +0.000 A 
ATOM     30  F   UNL     1     -45.499 -10.627 -30.127  0.00  0.00    +0.000 F 
ATOM     31  C   UNL     1     -45.491  -8.455 -29.153  0.00  0.00    +0.000 A 
ENDBRANCH   7  24
TORSDOF 1
ENDMDL
