MODEL 1
REMARK VINA RESULT:      -7.4      0.000      0.000
REMARK  Name = ZINC000015693488 ZINC15693488 PubChem-26752795
REMARK  5 active torsions:
REMARK  status: ('A' for Active; 'I' for Inactive)
REMARK    1  A    between atoms: C_1  and  C_19
REMARK    2  A    between atoms: C_12  and  C_15
REMARK    3  A    between atoms: C_19  and  O_21
REMARK    4  A    between atoms: O_21  and  C_22
REMARK    5  A    between atoms: C_22  and  C_29
REMARK                            x       y       z     vdW  Elec       q    Type
REMARK                         _______ _______ _______ _____ _____    ______ ____
ROOT
ATOM      1  C   UNL     1     -45.733  -3.443 -32.250  0.00  0.00    +0.000 C 
ATOM      2  O   UNL     1     -45.876  -2.532 -31.390  0.00  0.00    +0.000 OA
ATOM      3  N   UNL     1     -44.452  -3.662 -32.881  0.00  0.00    +0.000 N 
ATOM      4  C   UNL     1     -44.273  -4.871 -33.694  0.00  0.00    +0.000 C 
ATOM      5  C   UNL     1     -42.880  -5.406 -33.579  0.00  0.00    +0.000 C 
ATOM      6  O   UNL     1     -42.658  -6.629 -33.769  0.00  0.00    +0.000 OA
ATOM      7  N   UNL     1     -41.794  -4.515 -33.325  0.00  0.00    +0.000 N 
ATOM      8  C   UNL     1     -42.045  -3.146 -33.007  0.00  0.00    +0.000 A 
ATOM      9  C   UNL     1     -43.365  -2.710 -32.784  0.00  0.00    +0.000 A 
ATOM     10  C   UNL     1     -43.590  -1.360 -32.472  0.00  0.00    +0.000 A 
ATOM     11  C   UNL     1     -42.522  -0.465 -32.377  0.00  0.00    +0.000 A 
ATOM     12  C   UNL     1     -41.210  -0.902 -32.605  0.00  0.00    +0.000 A 
ATOM     13  C   UNL     1     -40.978  -2.251 -32.904  0.00  0.00    +0.000 A 
ATOM     14  H   UNL     1     -40.868  -4.846 -33.368  0.00  0.00    +0.000 HD
ENDROOT
BRANCH  12  15
ATOM     15  C   UNL     1     -40.059   0.048 -32.446  0.00  0.00    +0.000 C 
ATOM     16  F   UNL     1     -38.871  -0.648 -32.567  0.00  0.00    +0.000 F 
ATOM     17  F   UNL     1     -40.101   0.656 -31.203  0.00  0.00    +0.000 F 
ATOM     18  F   UNL     1     -40.108   1.032 -33.419  0.00  0.00    +0.000 F 
ENDBRANCH  12  15
BRANCH   1  19
ATOM     19  C   UNL     1     -46.905  -4.321 -32.577  0.00  0.00    +0.000 C 
ATOM     20  C   UNL     1     -47.733  -3.691 -33.681  0.00  0.00    +0.000 C 
BRANCH  19  21
ATOM     21  O   UNL     1     -47.719  -4.515 -31.426  0.00  0.00    +0.000 OA
BRANCH  21  22
ATOM     22  C   UNL     1     -47.581  -5.623 -30.581  0.00  0.00    +0.000 C 
ATOM     23  O   UNL     1     -47.745  -6.785 -31.042  0.00  0.00    +0.000 OA
BRANCH  22  29
ATOM     24  C   UNL     1     -45.380  -6.901 -26.162  0.00  0.00    +0.000 C 
ATOM     25  C   UNL     1     -46.202  -5.998 -27.021  0.00  0.00    +0.000 A 
ATOM     26  C   UNL     1     -46.716  -4.834 -26.447  0.00  0.00    +0.000 A 
ATOM     27  C   UNL     1     -47.488  -3.958 -27.205  0.00  0.00    +0.000 A 
ATOM     28  C   UNL     1     -47.751  -4.243 -28.544  0.00  0.00    +0.000 A 
ATOM     29  C   UNL     1     -47.251  -5.404 -29.150  0.00  0.00    +0.000 A 
ATOM     30  C   UNL     1     -46.461  -6.298 -28.375  0.00  0.00    +0.000 A 
ATOM     31  C   UNL     1     -45.892  -7.553 -28.963  0.00  0.00    +0.000 C 
ENDBRANCH  22  29
ENDBRANCH  21  22
ENDBRANCH  19  21
ENDBRANCH   1  19
TORSDOF 5
ENDMDL
MODEL 2
REMARK VINA RESULT:      -7.4      1.549      2.464
REMARK  Name = ZINC000015693488 ZINC15693488 PubChem-26752795
REMARK  5 active torsions:
REMARK  status: ('A' for Active; 'I' for Inactive)
REMARK    1  A    between atoms: C_1  and  C_19
REMARK    2  A    between atoms: C_12  and  C_15
REMARK    3  A    between atoms: C_19  and  O_21
REMARK    4  A    between atoms: O_21  and  C_22
REMARK    5  A    between atoms: C_22  and  C_29
REMARK                            x       y       z     vdW  Elec       q    Type
REMARK                         _______ _______ _______ _____ _____    ______ ____
ROOT
ATOM      1  C   UNL     1     -45.762  -3.401 -32.210  0.00  0.00    +0.000 C 
ATOM      2  O   UNL     1     -45.937  -2.407 -31.453  0.00  0.00    +0.000 OA
ATOM      3  N   UNL     1     -44.455  -3.688 -32.755  0.00  0.00    +0.000 N 
ATOM      4  C   UNL     1     -44.250  -4.974 -33.432  0.00  0.00    +0.000 C 
ATOM      5  C   UNL     1     -42.868  -5.500 -33.199  0.00  0.00    +0.000 C 
ATOM      6  O   UNL     1     -42.648  -6.737 -33.254  0.00  0.00    +0.000 OA
ATOM      7  N   UNL     1     -41.787  -4.592 -32.985  0.00  0.00    +0.000 N 
ATOM      8  C   UNL     1     -42.041  -3.197 -32.820  0.00  0.00    +0.000 A 
ATOM      9  C   UNL     1     -43.366  -2.735 -32.704  0.00  0.00    +0.000 A 
ATOM     10  C   UNL     1     -43.594  -1.360 -32.541  0.00  0.00    +0.000 A 
ATOM     11  C   UNL     1     -42.523  -0.464 -32.486  0.00  0.00    +0.000 A 
ATOM     12  C   UNL     1     -41.206  -0.926 -32.607  0.00  0.00    +0.000 A 
ATOM     13  C   UNL     1     -40.972  -2.300 -32.757  0.00  0.00    +0.000 A 
ATOM     14  H   UNL     1     -40.862  -4.929 -32.952  0.00  0.00    +0.000 HD
ENDROOT
BRANCH  12  15
ATOM     15  C   UNL     1     -40.055   0.030 -32.491  0.00  0.00    +0.000 C 
ATOM     16  F   UNL     1     -40.133   0.965 -33.506  0.00  0.00    +0.000 F 
ATOM     17  F   UNL     1     -38.852  -0.646 -32.591  0.00  0.00    +0.000 F 
ATOM     18  F   UNL     1     -40.094   0.684 -31.271  0.00  0.00    +0.000 F 
ENDBRANCH  12  15
BRANCH   1  19
ATOM     19  C   UNL     1     -46.925  -4.304 -32.501  0.00  0.00    +0.000 C 
ATOM     20  C   UNL     1     -47.739  -3.746 -33.654  0.00  0.00    +0.000 C 
BRANCH  19  21
ATOM     21  O   UNL     1     -47.756  -4.431 -31.353  0.00  0.00    +0.000 OA
BRANCH  21  22
ATOM     22  C   UNL     1     -47.440  -5.275 -30.281  0.00  0.00    +0.000 C 
ATOM     23  O   UNL     1     -47.656  -4.893 -29.099  0.00  0.00    +0.000 OA
BRANCH  22  29
ATOM     24  C   UNL     1     -43.588  -8.613 -30.437  0.00  0.00    +0.000 C 
ATOM     25  C   UNL     1     -45.015  -8.226 -30.642  0.00  0.00    +0.000 A 
ATOM     26  C   UNL     1     -45.893  -9.190 -31.141  0.00  0.00    +0.000 A 
ATOM     27  C   UNL     1     -47.233  -8.880 -31.349  0.00  0.00    +0.000 A 
ATOM     28  C   UNL     1     -47.704  -7.600 -31.060  0.00  0.00    +0.000 A 
ATOM     29  C   UNL     1     -46.849  -6.608 -30.560  0.00  0.00    +0.000 A 
ATOM     30  C   UNL     1     -45.480  -6.927 -30.346  0.00  0.00    +0.000 A 
ATOM     31  C   UNL     1     -44.513  -5.915 -29.809  0.00  0.00    +0.000 C 
ENDBRANCH  22  29
ENDBRANCH  21  22
ENDBRANCH  19  21
ENDBRANCH   1  19
TORSDOF 5
ENDMDL
MODEL 3
REMARK VINA RESULT:      -7.3      3.561      5.064
REMARK  Name = ZINC000015693488 ZINC15693488 PubChem-26752795
REMARK  5 active torsions:
REMARK  status: ('A' for Active; 'I' for Inactive)
REMARK    1  A    between atoms: C_1  and  C_19
REMARK    2  A    between atoms: C_12  and  C_15
REMARK    3  A    between atoms: C_19  and  O_21
REMARK    4  A    between atoms: O_21  and  C_22
REMARK    5  A    between atoms: C_22  and  C_29
REMARK                            x       y       z     vdW  Elec       q    Type
REMARK                         _______ _______ _______ _____ _____    ______ ____
ROOT
ATOM      1  C   UNL     1     -46.011  -6.654 -30.748  0.00  0.00    +0.000 C 
ATOM      2  O   UNL     1     -45.812  -6.069 -29.649  0.00  0.00    +0.000 OA
ATOM      3  N   UNL     1     -45.588  -6.049 -31.989  0.00  0.00    +0.000 N 
ATOM      4  C   UNL     1     -45.627  -6.862 -33.211  0.00  0.00    +0.000 C 
ATOM      5  C   UNL     1     -44.497  -6.519 -34.132  0.00  0.00    +0.000 C 
ATOM      6  O   UNL     1     -44.067  -7.377 -34.945  0.00  0.00    +0.000 OA
ATOM      7  N   UNL     1     -43.960  -5.197 -34.138  0.00  0.00    +0.000 N 
ATOM      8  C   UNL     1     -44.371  -4.249 -33.153  0.00  0.00    +0.000 A 
ATOM      9  C   UNL     1     -45.181  -4.662 -32.079  0.00  0.00    +0.000 A 
ATOM     10  C   UNL     1     -45.573  -3.714 -31.121  0.00  0.00    +0.000 A 
ATOM     11  C   UNL     1     -45.160  -2.384 -31.227  0.00  0.00    +0.000 A 
ATOM     12  C   UNL     1     -44.357  -1.975 -32.300  0.00  0.00    +0.000 A 
ATOM     13  C   UNL     1     -43.952  -2.920 -33.252  0.00  0.00    +0.000 A 
ATOM     14  H   UNL     1     -43.302  -4.938 -34.824  0.00  0.00    +0.000 HD
ENDROOT
BRANCH  12  15
ATOM     15  C   UNL     1     -43.866  -0.559 -32.382  0.00  0.00    +0.000 C 
ATOM     16  F   UNL     1     -43.862  -0.151 -33.702  0.00  0.00    +0.000 F 
ATOM     17  F   UNL     1     -42.582  -0.462 -31.875  0.00  0.00    +0.000 F 
ATOM     18  F   UNL     1     -44.692   0.280 -31.652  0.00  0.00    +0.000 F 
ENDBRANCH  12  15
BRANCH   1  19
ATOM     19  C   UNL     1     -46.658  -8.009 -30.741  0.00  0.00    +0.000 C 
ATOM     20  C   UNL     1     -47.651  -8.103 -29.599  0.00  0.00    +0.000 C 
BRANCH  19  21
ATOM     21  O   UNL     1     -45.676  -9.029 -30.601  0.00  0.00    +0.000 OA
BRANCH  21  22
ATOM     22  C   UNL     1     -45.841 -10.315 -31.129  0.00  0.00    +0.000 C 
ATOM     23  O   UNL     1     -46.001 -10.465 -32.371  0.00  0.00    +0.000 OA
BRANCH  22  29
ATOM     24  C   UNL     1     -43.631 -14.310 -28.856  0.00  0.00    +0.000 C 
ATOM     25  C   UNL     1     -44.788 -13.401 -29.108  0.00  0.00    +0.000 A 
ATOM     26  C   UNL     1     -45.981 -13.652 -28.427  0.00  0.00    +0.000 A 
ATOM     27  C   UNL     1     -47.089 -12.834 -28.625  0.00  0.00    +0.000 A 
ATOM     28  C   UNL     1     -47.011 -11.760 -29.509  0.00  0.00    +0.000 A 
ATOM     29  C   UNL     1     -45.829 -11.481 -30.211  0.00  0.00    +0.000 A 
ATOM     30  C   UNL     1     -44.697 -12.316 -30.006  0.00  0.00    +0.000 A 
ATOM     31  C   UNL     1     -43.403 -12.072 -30.719  0.00  0.00    +0.000 C 
ENDBRANCH  22  29
ENDBRANCH  21  22
ENDBRANCH  19  21
ENDBRANCH   1  19
TORSDOF 5
ENDMDL
