MODEL 1
REMARK VINA RESULT:      -6.3      0.000      0.000
REMARK  Name = ZINC000023755315 ZINC23755315 CSC028219200 MCULE-8163591876 MolPort-009-162-197 PubChem-31343882
REMARK  2 active torsions:
REMARK  status: ('A' for Active; 'I' for Inactive)
REMARK    1  A    between atoms: C_1  and  C_12
REMARK    2  A    between atoms: N_3  and  C_16
REMARK                            x       y       z     vdW  Elec       q    Type
REMARK                         _______ _______ _______ _____ _____    ______ ____
ROOT
ATOM      1  C   UNL     1     -45.671 -18.484 -24.682  0.00  0.00    +0.000 C 
ATOM      2  O   UNL     1     -46.609 -19.205 -25.113  0.00  0.00    +0.000 OA
ATOM      3  N   UNL     1     -45.149 -17.455 -25.535  0.00  0.00    +0.000 N 
ATOM      4  H   UNL     1     -45.107 -17.652 -26.499  0.00  0.00    +0.000 HD
ENDROOT
BRANCH   1  12
ATOM      5  C   UNL     1     -42.459 -20.173 -19.121  0.00  0.00    +0.000 C 
ATOM      6  N   UNL     1     -43.578 -19.394 -19.622  0.00  0.00    +0.000 N 
ATOM      7  N   UNL     1     -44.394 -18.676 -18.857  0.00  0.00    +0.000 NA
ATOM      8  C   UNL     1     -45.311 -18.092 -19.670  0.00  0.00    +0.000 A 
ATOM      9  C   UNL     1     -46.407 -17.204 -19.196  0.00  0.00    +0.000 C 
ATOM     10  C   UNL     1     -45.054 -18.460 -20.974  0.00  0.00    +0.000 A 
ATOM     11  C   UNL     1     -45.658 -18.166 -22.189  0.00  0.00    +0.000 A 
ATOM     12  C   UNL     1     -45.103 -18.758 -23.345  0.00  0.00    +0.000 A 
ATOM     13  C   UNL     1     -43.959 -19.589 -23.218  0.00  0.00    +0.000 A 
ATOM     14  N   UNL     1     -43.404 -19.841 -21.993  0.00  0.00    +0.000 NA
ATOM     15  C   UNL     1     -43.967 -19.272 -20.899  0.00  0.00    +0.000 A 
ENDBRANCH   1  12
BRANCH   3  16
ATOM     16  C   UNL     1     -44.683 -16.166 -25.110  0.00  0.00    +0.000 A 
ATOM     17  C   UNL     1     -45.591 -15.145 -24.786  0.00  0.00    +0.000 A 
ATOM     18  C   UNL     1     -45.125 -13.888 -24.396  0.00  0.00    +0.000 A 
ATOM     19  C   UNL     1     -43.750 -13.630 -24.362  0.00  0.00    +0.000 A 
ATOM     20  O   UNL     1     -43.307 -12.353 -24.004  0.00  0.00    +0.000 OA
ATOM     21  C   UNL     1     -44.215 -11.250 -23.953  0.00  0.00    +0.000 C 
ATOM     22  C   UNL     1     -45.558 -11.697 -23.368  0.00  0.00    +0.000 C 
ATOM     23  O   UNL     1     -46.018 -12.876 -24.031  0.00  0.00    +0.000 OA
ATOM     24  C   UNL     1     -42.840 -14.637 -24.687  0.00  0.00    +0.000 A 
ATOM     25  C   UNL     1     -43.302 -15.902 -25.065  0.00  0.00    +0.000 A 
ATOM     26 BR   UNL     1     -42.021 -17.250 -25.509  0.00  0.00    +0.000 Br
ENDBRANCH   3  16
TORSDOF 2
ENDMDL
MODEL 2
REMARK VINA RESULT:      -6.0     11.578     14.833
REMARK  Name = ZINC000023755315 ZINC23755315 CSC028219200 MCULE-8163591876 MolPort-009-162-197 PubChem-31343882
REMARK  2 active torsions:
REMARK  status: ('A' for Active; 'I' for Inactive)
REMARK    1  A    between atoms: C_1  and  C_12
REMARK    2  A    between atoms: N_3  and  C_16
REMARK                            x       y       z     vdW  Elec       q    Type
REMARK                         _______ _______ _______ _____ _____    ______ ____
ROOT
ATOM      1  C   UNL     1     -46.367  -6.631 -32.089  0.00  0.00    +0.000 C 
ATOM      2  O   UNL     1     -47.112  -7.553 -32.515  0.00  0.00    +0.000 OA
ATOM      3  N   UNL     1     -45.353  -6.111 -32.960  0.00  0.00    +0.000 N 
ATOM      4  H   UNL     1     -44.911  -6.751 -33.564  0.00  0.00    +0.000 HD
ENDROOT
BRANCH   1  12
ATOM      5  C   UNL     1     -47.756  -4.008 -26.149  0.00  0.00    +0.000 C 
ATOM      6  N   UNL     1     -46.911  -4.983 -26.816  0.00  0.00    +0.000 N 
ATOM      7  N   UNL     1     -46.011  -5.743 -26.200  0.00  0.00    +0.000 NA
ATOM      8  C   UNL     1     -45.420  -6.524 -27.140  0.00  0.00    +0.000 A 
ATOM      9  C   UNL     1     -44.350  -7.517 -26.853  0.00  0.00    +0.000 C 
ATOM     10  C   UNL     1     -45.971  -6.238 -28.372  0.00  0.00    +0.000 A 
ATOM     11  C   UNL     1     -45.752  -6.724 -29.654  0.00  0.00    +0.000 A 
ATOM     12  C   UNL     1     -46.522  -6.161 -30.696  0.00  0.00    +0.000 A 
ATOM     13  C   UNL     1     -47.484  -5.164 -30.388  0.00  0.00    +0.000 A 
ATOM     14  N   UNL     1     -47.658  -4.726 -29.103  0.00  0.00    +0.000 NA
ATOM     15  C   UNL     1     -46.894  -5.273 -28.125  0.00  0.00    +0.000 A 
ENDBRANCH   1  12
BRANCH   3  16
ATOM     16  C   UNL     1     -44.924  -4.743 -33.030  0.00  0.00    +0.000 A 
ATOM     17  C   UNL     1     -43.638  -4.370 -32.608  0.00  0.00    +0.000 A 
ATOM     18  C   UNL     1     -43.241  -3.033 -32.661  0.00  0.00    +0.000 A 
ATOM     19  C   UNL     1     -44.139  -2.052 -33.099  0.00  0.00    +0.000 A 
ATOM     20  O   UNL     1     -43.733  -0.715 -33.107  0.00  0.00    +0.000 OA
ATOM     21  C   UNL     1     -42.547  -0.305 -32.422  0.00  0.00    +0.000 C 
ATOM     22  C   UNL     1     -41.446  -1.355 -32.594  0.00  0.00    +0.000 C 
ATOM     23  O   UNL     1     -41.950  -2.655 -32.282  0.00  0.00    +0.000 OA
ATOM     24  C   UNL     1     -45.421  -2.412 -33.516  0.00  0.00    +0.000 A 
ATOM     25  C   UNL     1     -45.818  -3.753 -33.479  0.00  0.00    +0.000 A 
ATOM     26 BR   UNL     1     -47.586  -4.201 -34.051  0.00  0.00    +0.000 Br
ENDBRANCH   3  16
TORSDOF 2
ENDMDL
MODEL 3
REMARK VINA RESULT:      -5.7     10.921     14.203
REMARK  Name = ZINC000023755315 ZINC23755315 CSC028219200 MCULE-8163591876 MolPort-009-162-197 PubChem-31343882
REMARK  2 active torsions:
REMARK  status: ('A' for Active; 'I' for Inactive)
REMARK    1  A    between atoms: C_1  and  C_12
REMARK    2  A    between atoms: N_3  and  C_16
REMARK                            x       y       z     vdW  Elec       q    Type
REMARK                         _______ _______ _______ _____ _____    ______ ____
ROOT
ATOM      1  C   UNL     1     -46.313  -6.712 -31.656  0.00  0.00    +0.000 C 
ATOM      2  O   UNL     1     -47.243  -7.364 -32.198  0.00  0.00    +0.000 OA
ATOM      3  N   UNL     1     -45.107  -6.487 -32.402  0.00  0.00    +0.000 N 
ATOM      4  H   UNL     1     -44.809  -7.212 -32.998  0.00  0.00    +0.000 HD
ENDROOT
BRANCH   1  12
ATOM      5  C   UNL     1     -47.626  -4.059 -25.712  0.00  0.00    +0.000 C 
ATOM      6  N   UNL     1     -46.874  -5.113 -26.370  0.00  0.00    +0.000 N 
ATOM      7  N   UNL     1     -46.095  -5.985 -25.739  0.00  0.00    +0.000 NA
ATOM      8  C   UNL     1     -45.561  -6.811 -26.673  0.00  0.00    +0.000 A 
ATOM      9  C   UNL     1     -44.626  -7.929 -26.370  0.00  0.00    +0.000 C 
ATOM     10  C   UNL     1     -46.024  -6.440 -27.918  0.00  0.00    +0.000 A 
ATOM     11  C   UNL     1     -45.812  -6.922 -29.203  0.00  0.00    +0.000 A 
ATOM     12  C   UNL     1     -46.468  -6.254 -30.259  0.00  0.00    +0.000 A 
ATOM     13  C   UNL     1     -47.319  -5.156 -29.964  0.00  0.00    +0.000 A 
ATOM     14  N   UNL     1     -47.493  -4.726 -28.677  0.00  0.00    +0.000 NA
ATOM     15  C   UNL     1     -46.838  -5.378 -27.684  0.00  0.00    +0.000 A 
ENDBRANCH   1  12
BRANCH   3  16
ATOM     16  C   UNL     1     -44.299  -5.302 -32.357  0.00  0.00    +0.000 A 
ATOM     17  C   UNL     1     -44.743  -4.107 -32.945  0.00  0.00    +0.000 A 
ATOM     18  C   UNL     1     -43.937  -2.967 -32.914  0.00  0.00    +0.000 A 
ATOM     19  C   UNL     1     -42.667  -3.022 -32.329  0.00  0.00    +0.000 A 
ATOM     20  O   UNL     1     -41.862  -1.880 -32.343  0.00  0.00    +0.000 OA
ATOM     21  C   UNL     1     -42.187  -0.764 -33.177  0.00  0.00    +0.000 C 
ATOM     22  C   UNL     1     -43.701  -0.535 -33.188  0.00  0.00    +0.000 C 
ATOM     23  O   UNL     1     -44.385  -1.760 -33.460  0.00  0.00    +0.000 OA
ATOM     24  C   UNL     1     -42.215  -4.207 -31.746  0.00  0.00    +0.000 A 
ATOM     25  C   UNL     1     -43.025  -5.348 -31.762  0.00  0.00    +0.000 A 
ATOM     26 BR   UNL     1     -42.363  -6.952 -30.959  0.00  0.00    +0.000 Br
ENDBRANCH   3  16
TORSDOF 2
ENDMDL
