MODEL 1
REMARK VINA RESULT:      -6.1      0.000      0.000
REMARK  Name = ZINC000007171592 ZINC07171592 PubChem-8287314
REMARK  5 active torsions:
REMARK  status: ('A' for Active; 'I' for Inactive)
REMARK    1  A    between atoms: C_2  and  C_3
REMARK    2  A    between atoms: C_2  and  S_17
REMARK    3  A    between atoms: S_17  and  C_18
REMARK    4  A    between atoms: C_21  and  C_29
REMARK    5  A    between atoms: N_22  and  C_23
REMARK                            x       y       z     vdW  Elec       q    Type
REMARK                         _______ _______ _______ _____ _____    ______ ____
ROOT
ATOM      1  C   UNL     1     -45.847  -5.722 -28.247  0.00  0.00    +0.000 C 
ATOM      2  C   UNL     1     -45.874  -5.830 -29.764  0.00  0.00    +0.000 C 
ENDROOT
BRANCH   2   3
ATOM      3  C   UNL     1     -45.841  -7.258 -30.242  0.00  0.00    +0.000 C 
ATOM      4  O   UNL     1     -46.859  -7.990 -30.095  0.00  0.00    +0.000 OA
ATOM      5  N   UNL     1     -44.646  -7.795 -30.845  0.00  0.00    +0.000 N 
ATOM      6  C   UNL     1     -43.372  -7.104 -30.606  0.00  0.00    +0.000 C 
ATOM      7  C   UNL     1     -42.221  -8.062 -30.573  0.00  0.00    +0.000 C 
ATOM      8  O   UNL     1     -41.174  -7.762 -29.944  0.00  0.00    +0.000 OA
ATOM      9  N   UNL     1     -42.284  -9.280 -31.314  0.00  0.00    +0.000 N 
ATOM     10  C   UNL     1     -43.498  -9.677 -31.948  0.00  0.00    +0.000 A 
ATOM     11  C   UNL     1     -44.680  -8.946 -31.721  0.00  0.00    +0.000 A 
ATOM     12  C   UNL     1     -45.863  -9.348 -32.362  0.00  0.00    +0.000 A 
ATOM     13  C   UNL     1     -45.872 -10.466 -33.200  0.00  0.00    +0.000 A 
ATOM     14  C   UNL     1     -44.697 -11.194 -33.408  0.00  0.00    +0.000 A 
ATOM     15  C   UNL     1     -43.511 -10.800 -32.782  0.00  0.00    +0.000 A 
ATOM     16  H   UNL     1     -41.484  -9.850 -31.387  0.00  0.00    +0.000 HD
ENDBRANCH   2   3
BRANCH   2  17
ATOM     17  S   UNL     1     -47.354  -4.995 -30.411  0.00  0.00    +0.000 S 
BRANCH  17  18
ATOM     18  C   UNL     1     -46.391  -3.646 -31.096  0.00  0.00    +0.000 A 
ATOM     19  N   UNL     1     -46.111  -2.528 -30.401  0.00  0.00    +0.000 NA
ATOM     20  N   UNL     1     -45.437  -1.727 -31.212  0.00  0.00    +0.000 NA
ATOM     21  C   UNL     1     -45.329  -2.361 -32.398  0.00  0.00    +0.000 A 
ATOM     22  N   UNL     1     -45.910  -3.582 -32.358  0.00  0.00    +0.000 N 
BRANCH  22  23
ATOM     23  C   UNL     1     -45.973  -4.582 -33.395  0.00  0.00    +0.000 A 
ATOM     24  C   UNL     1     -47.083  -4.656 -34.250  0.00  0.00    +0.000 A 
ATOM     25  C   UNL     1     -47.143  -5.624 -35.256  0.00  0.00    +0.000 A 
ATOM     26  C   UNL     1     -46.093  -6.530 -35.417  0.00  0.00    +0.000 A 
ATOM     27  C   UNL     1     -44.984  -6.469 -34.569  0.00  0.00    +0.000 A 
ATOM     28  C   UNL     1     -44.925  -5.501 -33.565  0.00  0.00    +0.000 A 
ENDBRANCH  22  23
BRANCH  21  29
ATOM     29  C   UNL     1     -44.563  -1.814 -33.568  0.00  0.00    +0.000 C 
ATOM     30  C   UNL     1     -43.078  -2.113 -33.443  0.00  0.00    +0.000 C 
ATOM     31  C   UNL     1     -43.602  -0.745 -33.080  0.00  0.00    +0.000 C 
ENDBRANCH  21  29
ENDBRANCH  17  18
ENDBRANCH   2  17
TORSDOF 5
ENDMDL
MODEL 2
REMARK VINA RESULT:      -6.0      2.294      2.749
REMARK  Name = ZINC000007171592 ZINC07171592 PubChem-8287314
REMARK  5 active torsions:
REMARK  status: ('A' for Active; 'I' for Inactive)
REMARK    1  A    between atoms: C_2  and  C_3
REMARK    2  A    between atoms: C_2  and  S_17
REMARK    3  A    between atoms: S_17  and  C_18
REMARK    4  A    between atoms: C_21  and  C_29
REMARK    5  A    between atoms: N_22  and  C_23
REMARK                            x       y       z     vdW  Elec       q    Type
REMARK                         _______ _______ _______ _____ _____    ______ ____
ROOT
ATOM      1  C   UNL     1     -44.329  -5.766 -29.434  0.00  0.00    +0.000 C 
ATOM      2  C   UNL     1     -45.105  -6.749 -30.298  0.00  0.00    +0.000 C 
ENDROOT
BRANCH   2   3
ATOM      3  C   UNL     1     -45.089  -8.147 -29.740  0.00  0.00    +0.000 C 
ATOM      4  O   UNL     1     -44.800  -8.332 -28.525  0.00  0.00    +0.000 OA
ATOM      5  N   UNL     1     -45.381  -9.274 -30.593  0.00  0.00    +0.000 N 
ATOM      6  C   UNL     1     -45.270  -9.095 -32.046  0.00  0.00    +0.000 C 
ATOM      7  C   UNL     1     -44.829 -10.354 -32.726  0.00  0.00    +0.000 C 
ATOM      8  O   UNL     1     -44.244 -10.295 -33.838  0.00  0.00    +0.000 OA
ATOM      9  N   UNL     1     -45.136 -11.624 -32.150  0.00  0.00    +0.000 N 
ATOM     10  C   UNL     1     -45.709 -11.703 -30.846  0.00  0.00    +0.000 A 
ATOM     11  C   UNL     1     -45.835 -10.540 -30.062  0.00  0.00    +0.000 A 
ATOM     12  C   UNL     1     -46.409 -10.639 -28.784  0.00  0.00    +0.000 A 
ATOM     13  C   UNL     1     -46.837 -11.874 -28.292  0.00  0.00    +0.000 A 
ATOM     14  C   UNL     1     -46.695 -13.025 -29.072  0.00  0.00    +0.000 A 
ATOM     15  C   UNL     1     -46.131 -12.940 -30.347  0.00  0.00    +0.000 A 
ATOM     16  H   UNL     1     -44.951 -12.448 -32.655  0.00  0.00    +0.000 HD
ENDBRANCH   2   3
BRANCH   2  17
ATOM     17  S   UNL     1     -46.821  -6.176 -30.483  0.00  0.00    +0.000 S 
BRANCH  17  18
ATOM     18  C   UNL     1     -46.304  -4.569 -31.090  0.00  0.00    +0.000 A 
ATOM     19  N   UNL     1     -46.434  -3.443 -30.364  0.00  0.00    +0.000 NA
ATOM     20  N   UNL     1     -46.008  -2.444 -31.121  0.00  0.00    +0.000 NA
ATOM     21  C   UNL     1     -45.639  -2.972 -32.307  0.00  0.00    +0.000 A 
ATOM     22  N   UNL     1     -45.801  -4.315 -32.318  0.00  0.00    +0.000 N 
BRANCH  22  23
ATOM     23  C   UNL     1     -45.484  -5.249 -33.371  0.00  0.00    +0.000 A 
ATOM     24  C   UNL     1     -44.175  -5.729 -33.529  0.00  0.00    +0.000 A 
ATOM     25  C   UNL     1     -43.868  -6.635 -34.548  0.00  0.00    +0.000 A 
ATOM     26  C   UNL     1     -44.867  -7.069 -35.421  0.00  0.00    +0.000 A 
ATOM     27  C   UNL     1     -46.174  -6.595 -35.276  0.00  0.00    +0.000 A 
ATOM     28  C   UNL     1     -46.480  -5.691 -34.257  0.00  0.00    +0.000 A 
ENDBRANCH  22  23
BRANCH  21  29
ATOM     29  C   UNL     1     -45.026  -2.172 -33.419  0.00  0.00    +0.000 C 
ATOM     30  C   UNL     1     -43.510  -2.149 -33.311  0.00  0.00    +0.000 C 
ATOM     31  C   UNL     1     -44.316  -0.964 -32.835  0.00  0.00    +0.000 C 
ENDBRANCH  21  29
ENDBRANCH  17  18
ENDBRANCH   2  17
TORSDOF 5
ENDMDL
MODEL 3
REMARK VINA RESULT:      -5.9      2.745      6.876
REMARK  Name = ZINC000007171592 ZINC07171592 PubChem-8287314
REMARK  5 active torsions:
REMARK  status: ('A' for Active; 'I' for Inactive)
REMARK    1  A    between atoms: C_2  and  C_3
REMARK    2  A    between atoms: C_2  and  S_17
REMARK    3  A    between atoms: S_17  and  C_18
REMARK    4  A    between atoms: C_21  and  C_29
REMARK    5  A    between atoms: N_22  and  C_23
REMARK                            x       y       z     vdW  Elec       q    Type
REMARK                         _______ _______ _______ _____ _____    ______ ____
ROOT
ATOM      1  C   UNL     1     -46.890  -7.847 -32.704  0.00  0.00    +0.000 C 
ATOM      2  C   UNL     1     -46.273  -7.019 -31.587  0.00  0.00    +0.000 C 
ENDROOT
BRANCH   2   3
ATOM      3  C   UNL     1     -46.248  -5.547 -31.905  0.00  0.00    +0.000 C 
ATOM      4  O   UNL     1     -47.294  -4.857 -31.755  0.00  0.00    +0.000 OA
ATOM      5  N   UNL     1     -45.042  -4.931 -32.401  0.00  0.00    +0.000 N 
ATOM      6  C   UNL     1     -44.006  -5.794 -32.983  0.00  0.00    +0.000 C 
ATOM      7  C   UNL     1     -43.262  -5.101 -34.082  0.00  0.00    +0.000 C 
ATOM      8  O   UNL     1     -42.696  -5.776 -34.980  0.00  0.00    +0.000 OA
ATOM      9  N   UNL     1     -43.132  -3.679 -34.071  0.00  0.00    +0.000 N 
ATOM     10  C   UNL     1     -43.849  -2.896 -33.118  0.00  0.00    +0.000 A 
ATOM     11  C   UNL     1     -44.802  -3.509 -32.282  0.00  0.00    +0.000 A 
ATOM     12  C   UNL     1     -45.491  -2.723 -31.344  0.00  0.00    +0.000 A 
ATOM     13  C   UNL     1     -45.245  -1.351 -31.251  0.00  0.00    +0.000 A 
ATOM     14  C   UNL     1     -44.307  -0.749 -32.095  0.00  0.00    +0.000 A 
ATOM     15  C   UNL     1     -43.610  -1.522 -33.028  0.00  0.00    +0.000 A 
ATOM     16  H   UNL     1     -42.545  -3.236 -34.726  0.00  0.00    +0.000 HD
ENDBRANCH   2   3
BRANCH   2  17
ATOM     17  S   UNL     1     -47.186  -7.302 -30.040  0.00  0.00    +0.000 S 
BRANCH  17  18
ATOM     18  C   UNL     1     -45.679  -7.585 -29.109  0.00  0.00    +0.000 A 
ATOM     19  N   UNL     1     -44.747  -8.478 -29.490  0.00  0.00    +0.000 NA
ATOM     20  N   UNL     1     -43.803  -8.471 -28.562  0.00  0.00    +0.000 NA
ATOM     21  C   UNL     1     -44.180  -7.585 -27.617  0.00  0.00    +0.000 A 
ATOM     22  N   UNL     1     -45.356  -6.997 -27.936  0.00  0.00    +0.000 N 
BRANCH  22  23
ATOM     23  C   UNL     1     -46.071  -5.971 -27.217  0.00  0.00    +0.000 A 
ATOM     24  C   UNL     1     -46.488  -4.800 -27.870  0.00  0.00    +0.000 A 
ATOM     25  C   UNL     1     -47.183  -3.807 -27.174  0.00  0.00    +0.000 A 
ATOM     26  C   UNL     1     -47.465  -3.973 -25.816  0.00  0.00    +0.000 A 
ATOM     27  C   UNL     1     -47.052  -5.133 -25.155  0.00  0.00    +0.000 A 
ATOM     28  C   UNL     1     -46.359  -6.125 -25.852  0.00  0.00    +0.000 A 
ENDBRANCH  22  23
BRANCH  21  29
ATOM     29  C   UNL     1     -43.338  -7.229 -26.426  0.00  0.00    +0.000 C 
ATOM     30  C   UNL     1     -42.110  -6.433 -26.838  0.00  0.00    +0.000 C 
ATOM     31  C   UNL     1     -41.987  -7.910 -26.548  0.00  0.00    +0.000 C 
ENDBRANCH  21  29
ENDBRANCH  17  18
ENDBRANCH   2  17
TORSDOF 5
ENDMDL
