MODEL 1
REMARK VINA RESULT:      -6.0      0.000      0.000
REMARK  Name = ZINC000003368851 ZINC03368851 CSC027878501 MCULE-2701712437 MolPort-005-844-179 PubChem-2486663
REMARK  7 active torsions:
REMARK  status: ('A' for Active; 'I' for Inactive)
REMARK    1  A    between atoms: C_6  and  C_19
REMARK    2  A    between atoms: N_10  and  C_18
REMARK    3  A    between atoms: C_19  and  O_20
REMARK    4  A    between atoms: O_20  and  C_21
REMARK    5  A    between atoms: C_21  and  C_23
REMARK    6  A    between atoms: C_23  and  S_24
REMARK    7  A    between atoms: S_24  and  C_25
REMARK                            x       y       z     vdW  Elec       q    Type
REMARK                         _______ _______ _______ _____ _____    ______ ____
ROOT
ATOM      1  C   UNL     1     -45.353 -14.735 -25.310  0.00  0.00    +0.000 A 
ATOM      2  N   UNL     1     -45.361 -13.476 -25.819  0.00  0.00    +0.000 NA
ATOM      3  C   UNL     1     -45.623 -12.415 -25.014  0.00  0.00    +0.000 A 
ATOM      4  N   UNL     1     -45.618 -11.097 -25.548  0.00  0.00    +0.000 N 
ATOM      5  N   UNL     1     -45.882 -12.609 -23.697  0.00  0.00    +0.000 NA
ATOM      6  C   UNL     1     -45.869 -13.865 -23.183  0.00  0.00    +0.000 A 
ATOM      7  N   UNL     1     -45.604 -14.924 -23.988  0.00  0.00    +0.000 NA
ATOM      8  H   UNL     1     -45.430 -10.954 -26.504  0.00  0.00    +0.000 HD
ATOM      9  H   UNL     1     -45.803 -10.327 -24.962  0.00  0.00    +0.000 HD
ATOM     10  N   UNL     1     -45.065 -15.840 -26.180  0.00  0.00    +0.000 N 
ATOM     11  H   UNL     1     -44.846 -15.616 -27.113  0.00  0.00    +0.000 HD
ENDROOT
BRANCH  10  18
ATOM     12  C   UNL     1     -42.966 -17.535 -27.218  0.00  0.00    +0.000 C 
ATOM     13  C   UNL     1     -44.042 -18.075 -26.337  0.00  0.00    +0.000 A 
ATOM     14  C   UNL     1     -44.020 -19.432 -25.999  0.00  0.00    +0.000 A 
ATOM     15  C   UNL     1     -45.009 -19.971 -25.171  0.00  0.00    +0.000 A 
ATOM     16  C   UNL     1     -46.027 -19.152 -24.681  0.00  0.00    +0.000 A 
ATOM     17  C   UNL     1     -46.054 -17.796 -25.018  0.00  0.00    +0.000 A 
ATOM     18  C   UNL     1     -45.062 -17.239 -25.841  0.00  0.00    +0.000 A 
ENDBRANCH  10  18
BRANCH   6  19
ATOM     19  C   UNL     1     -46.169 -14.079 -21.738  0.00  0.00    +0.000 C 
BRANCH  19  20
ATOM     20  O   UNL     1     -46.244 -15.471 -21.458  0.00  0.00    +0.000 OA
BRANCH  20  21
ATOM     21  C   UNL     1     -46.159 -15.975 -20.157  0.00  0.00    +0.000 C 
ATOM     22  O   UNL     1     -46.954 -15.589 -19.255  0.00  0.00    +0.000 OA
BRANCH  21  23
ATOM     23  C   UNL     1     -45.103 -16.972 -19.825  0.00  0.00    +0.000 C 
BRANCH  23  24
ATOM     24  S   UNL     1     -45.591 -18.627 -20.409  0.00  0.00    +0.000 S 
BRANCH  24  25
ATOM     25  C   UNL     1     -44.204 -18.760 -21.531  0.00  0.00    +0.000 A 
ATOM     26  C   UNL     1     -43.688 -17.613 -22.144  0.00  0.00    +0.000 A 
ATOM     27  C   UNL     1     -42.582 -17.717 -22.990  0.00  0.00    +0.000 A 
ATOM     28  C   UNL     1     -42.032 -16.476 -23.606  0.00  0.00    +0.000 C 
ATOM     29  C   UNL     1     -42.007 -18.978 -23.226  0.00  0.00    +0.000 A 
ATOM     30  C   UNL     1     -40.897 -19.139 -24.068  0.00  0.00    +0.000 A 
ATOM     31  C   UNL     1     -40.352 -20.409 -24.282  0.00  0.00    +0.000 A 
ATOM     32  C   UNL     1     -40.909 -21.526 -23.654  0.00  0.00    +0.000 A 
ATOM     33  C   UNL     1     -42.012 -21.378 -22.806  0.00  0.00    +0.000 A 
ATOM     34  C   UNL     1     -42.565 -20.113 -22.591  0.00  0.00    +0.000 A 
ATOM     35  N   UNL     1     -43.631 -19.972 -21.758  0.00  0.00    +0.000 NA
ENDBRANCH  24  25
ENDBRANCH  23  24
ENDBRANCH  21  23
ENDBRANCH  20  21
ENDBRANCH  19  20
ENDBRANCH   6  19
TORSDOF 7
ENDMDL
MODEL 2
REMARK VINA RESULT:      -5.9     11.553     15.227
REMARK  Name = ZINC000003368851 ZINC03368851 CSC027878501 MCULE-2701712437 MolPort-005-844-179 PubChem-2486663
REMARK  7 active torsions:
REMARK  status: ('A' for Active; 'I' for Inactive)
REMARK    1  A    between atoms: C_6  and  C_19
REMARK    2  A    between atoms: N_10  and  C_18
REMARK    3  A    between atoms: C_19  and  O_20
REMARK    4  A    between atoms: O_20  and  C_21
REMARK    5  A    between atoms: C_21  and  C_23
REMARK    6  A    between atoms: C_23  and  S_24
REMARK    7  A    between atoms: S_24  and  C_25
REMARK                            x       y       z     vdW  Elec       q    Type
REMARK                         _______ _______ _______ _____ _____    ______ ____
ROOT
ATOM      1  C   UNL     1     -47.336  -4.424 -28.492  0.00  0.00    +0.000 A 
ATOM      2  N   UNL     1     -47.503  -3.919 -29.742  0.00  0.00    +0.000 NA
ATOM      3  C   UNL     1     -47.395  -4.728 -30.827  0.00  0.00    +0.000 A 
ATOM      4  N   UNL     1     -47.583  -4.197 -32.133  0.00  0.00    +0.000 N 
ATOM      5  N   UNL     1     -47.116  -6.045 -30.666  0.00  0.00    +0.000 NA
ATOM      6  C   UNL     1     -46.954  -6.556 -29.420  0.00  0.00    +0.000 A 
ATOM      7  N   UNL     1     -47.065  -5.746 -28.336  0.00  0.00    +0.000 NA
ATOM      8  H   UNL     1     -47.786  -3.241 -32.251  0.00  0.00    +0.000 HD
ATOM      9  H   UNL     1     -47.510  -4.786 -32.919  0.00  0.00    +0.000 HD
ATOM     10  N   UNL     1     -47.463  -3.550 -27.361  0.00  0.00    +0.000 N 
ATOM     11  H   UNL     1     -47.708  -2.617 -27.555  0.00  0.00    +0.000 HD
ENDROOT
BRANCH  10  18
ATOM     12  C   UNL     1     -47.694  -1.471 -25.366  0.00  0.00    +0.000 C 
ATOM     13  C   UNL     1     -47.386  -2.882 -24.992  0.00  0.00    +0.000 A 
ATOM     14  C   UNL     1     -47.218  -3.200 -23.640  0.00  0.00    +0.000 A 
ATOM     15  C   UNL     1     -46.934  -4.513 -23.253  0.00  0.00    +0.000 A 
ATOM     16  C   UNL     1     -46.812  -5.512 -24.219  0.00  0.00    +0.000 A 
ATOM     17  C   UNL     1     -46.976  -5.197 -25.571  0.00  0.00    +0.000 A 
ATOM     18  C   UNL     1     -47.271  -3.885 -25.974  0.00  0.00    +0.000 A 
ENDBRANCH  10  18
BRANCH   6  19
ATOM     19  C   UNL     1     -46.632  -8.001 -29.245  0.00  0.00    +0.000 C 
BRANCH  19  20
ATOM     20  O   UNL     1     -45.358  -8.286 -29.809  0.00  0.00    +0.000 OA
BRANCH  20  21
ATOM     21  C   UNL     1     -44.164  -7.951 -29.162  0.00  0.00    +0.000 C 
ATOM     22  O   UNL     1     -43.855  -8.473 -28.055  0.00  0.00    +0.000 OA
BRANCH  21  23
ATOM     23  C   UNL     1     -43.252  -6.951 -29.781  0.00  0.00    +0.000 C 
BRANCH  23  24
ATOM     24  S   UNL     1     -43.174  -7.197 -31.585  0.00  0.00    +0.000 S 
BRANCH  24  25
ATOM     25  C   UNL     1     -42.865  -5.467 -31.918  0.00  0.00    +0.000 A 
ATOM     26  C   UNL     1     -41.616  -5.059 -32.400  0.00  0.00    +0.000 A 
ATOM     27  C   UNL     1     -41.392  -3.713 -32.693  0.00  0.00    +0.000 A 
ATOM     28  C   UNL     1     -40.063  -3.309 -33.235  0.00  0.00    +0.000 C 
ATOM     29  C   UNL     1     -42.423  -2.778 -32.488  0.00  0.00    +0.000 A 
ATOM     30  C   UNL     1     -42.250  -1.414 -32.765  0.00  0.00    +0.000 A 
ATOM     31  C   UNL     1     -43.296  -0.513 -32.547  0.00  0.00    +0.000 A 
ATOM     32  C   UNL     1     -44.523  -0.967 -32.055  0.00  0.00    +0.000 A 
ATOM     33  C   UNL     1     -44.710  -2.326 -31.782  0.00  0.00    +0.000 A 
ATOM     34  C   UNL     1     -43.668  -3.233 -31.993  0.00  0.00    +0.000 A 
ATOM     35  N   UNL     1     -43.857  -4.555 -31.735  0.00  0.00    +0.000 NA
ENDBRANCH  24  25
ENDBRANCH  23  24
ENDBRANCH  21  23
ENDBRANCH  20  21
ENDBRANCH  19  20
ENDBRANCH   6  19
TORSDOF 7
ENDMDL
MODEL 3
REMARK VINA RESULT:      -5.6      2.690      7.865
REMARK  Name = ZINC000003368851 ZINC03368851 CSC027878501 MCULE-2701712437 MolPort-005-844-179 PubChem-2486663
REMARK  7 active torsions:
REMARK  status: ('A' for Active; 'I' for Inactive)
REMARK    1  A    between atoms: C_6  and  C_19
REMARK    2  A    between atoms: N_10  and  C_18
REMARK    3  A    between atoms: C_19  and  O_20
REMARK    4  A    between atoms: O_20  and  C_21
REMARK    5  A    between atoms: C_21  and  C_23
REMARK    6  A    between atoms: C_23  and  S_24
REMARK    7  A    between atoms: S_24  and  C_25
REMARK                            x       y       z     vdW  Elec       q    Type
REMARK                         _______ _______ _______ _____ _____    ______ ____
ROOT
ATOM      1  C   UNL     1     -44.458 -17.575 -19.320  0.00  0.00    +0.000 A 
ATOM      2  N   UNL     1     -43.848 -18.500 -18.535  0.00  0.00    +0.000 NA
ATOM      3  C   UNL     1     -43.410 -19.669 -19.068  0.00  0.00    +0.000 A 
ATOM      4  N   UNL     1     -42.760 -20.628 -18.244  0.00  0.00    +0.000 N 
ATOM      5  N   UNL     1     -43.583 -19.919 -20.389  0.00  0.00    +0.000 NA
ATOM      6  C   UNL     1     -44.187 -18.996 -21.180  0.00  0.00    +0.000 A 
ATOM      7  N   UNL     1     -44.623 -17.827 -20.645  0.00  0.00    +0.000 NA
ATOM      8  H   UNL     1     -42.633 -20.448 -17.285  0.00  0.00    +0.000 HD
ATOM      9  H   UNL     1     -42.437 -21.473 -18.633  0.00  0.00    +0.000 HD
ATOM     10  N   UNL     1     -44.906 -16.344 -18.735  0.00  0.00    +0.000 N 
ATOM     11  H   UNL     1     -44.707 -16.216 -17.779  0.00  0.00    +0.000 HD
ENDROOT
BRANCH  10  18
ATOM     12  C   UNL     1     -47.754 -16.079 -18.315  0.00  0.00    +0.000 C 
ATOM     13  C   UNL     1     -47.001 -15.131 -19.187  0.00  0.00    +0.000 A 
ATOM     14  C   UNL     1     -47.695 -14.083 -19.802  0.00  0.00    +0.000 A 
ATOM     15  C   UNL     1     -47.020 -13.173 -20.620  0.00  0.00    +0.000 A 
ATOM     16  C   UNL     1     -45.648 -13.311 -20.830  0.00  0.00    +0.000 A 
ATOM     17  C   UNL     1     -44.951 -14.357 -20.219  0.00  0.00    +0.000 A 
ATOM     18  C   UNL     1     -45.614 -15.274 -19.387  0.00  0.00    +0.000 A 
ENDBRANCH  10  18
BRANCH   6  19
ATOM     19  C   UNL     1     -44.392 -19.279 -22.629  0.00  0.00    +0.000 C 
BRANCH  19  20
ATOM     20  O   UNL     1     -45.554 -18.607 -23.097  0.00  0.00    +0.000 OA
BRANCH  20  21
ATOM     21  C   UNL     1     -45.831 -18.456 -24.459  0.00  0.00    +0.000 C 
ATOM     22  O   UNL     1     -45.905 -19.457 -25.223  0.00  0.00    +0.000 OA
BRANCH  21  23
ATOM     23  C   UNL     1     -46.026 -17.090 -25.019  0.00  0.00    +0.000 C 
BRANCH  23  24
ATOM     24  S   UNL     1     -45.544 -15.830 -23.794  0.00  0.00    +0.000 S 
BRANCH  24  25
ATOM     25  C   UNL     1     -45.650 -14.487 -24.972  0.00  0.00    +0.000 A 
ATOM     26  C   UNL     1     -45.782 -13.169 -24.521  0.00  0.00    +0.000 A 
ATOM     27  C   UNL     1     -45.828 -12.122 -25.442  0.00  0.00    +0.000 A 
ATOM     28  C   UNL     1     -45.938 -10.724 -24.934  0.00  0.00    +0.000 C 
ATOM     29  C   UNL     1     -45.751 -12.406 -26.817  0.00  0.00    +0.000 A 
ATOM     30  C   UNL     1     -45.794 -11.392 -27.786  0.00  0.00    +0.000 A 
ATOM     31  C   UNL     1     -45.717 -11.711 -29.144  0.00  0.00    +0.000 A 
ATOM     32  C   UNL     1     -45.595 -13.044 -29.546  0.00  0.00    +0.000 A 
ATOM     33  C   UNL     1     -45.544 -14.063 -28.591  0.00  0.00    +0.000 A 
ATOM     34  C   UNL     1     -45.624 -13.753 -27.231  0.00  0.00    +0.000 A 
ATOM     35  N   UNL     1     -45.565 -14.747 -26.304  0.00  0.00    +0.000 NA
ENDBRANCH  24  25
ENDBRANCH  23  24
ENDBRANCH  21  23
ENDBRANCH  20  21
ENDBRANCH  19  20
ENDBRANCH   6  19
TORSDOF 7
ENDMDL
