MODEL 1
REMARK VINA RESULT:      -6.9      0.000      0.000
REMARK  Name = ZINC000012762430
REMARK  6 active torsions:
REMARK  status: ('A' for Active; 'I' for Inactive)
REMARK    1  A    between atoms: C_1  and  C_15
REMARK    2  A    between atoms: C_9  and  S_27
REMARK    3  A    between atoms: N_13  and  C_17
REMARK    4  A    between atoms: C_17  and  C_21
REMARK    5  A    between atoms: C_18  and  C_26
REMARK    6  A    between atoms: S_27  and  N_30
REMARK                            x       y       z     vdW  Elec       q    Type
REMARK                         _______ _______ _______ _____ _____    ______ ____
ROOT
ATOM      1  C   UNL     1     -45.074 -14.785 -19.783  0.00  0.00    +0.000 A 
ATOM      2  C   UNL     1     -45.963 -14.139 -18.914  0.00  0.00    +0.000 A 
ATOM      3  C   UNL     1     -46.965 -14.862 -18.266  0.00  0.00    +0.000 A 
ATOM      4  O   UNL     1     -47.756 -14.272 -17.485  0.00  0.00    +0.000 OA
ATOM      5  N   UNL     1     -47.091 -16.197 -18.478  0.00  0.00    +0.000 N 
ATOM      6  C   UNL     1     -46.255 -16.867 -19.314  0.00  0.00    +0.000 A 
ATOM      7  C   UNL     1     -46.421 -18.242 -19.502  0.00  0.00    +0.000 A 
ATOM      8  C   UNL     1     -45.563 -18.942 -20.354  0.00  0.00    +0.000 A 
ATOM      9  C   UNL     1     -44.531 -18.271 -21.020  0.00  0.00    +0.000 A 
ATOM     10  C   UNL     1     -44.364 -16.895 -20.836  0.00  0.00    +0.000 A 
ATOM     11  C   UNL     1     -45.221 -16.175 -19.991  0.00  0.00    +0.000 A 
ATOM     12  H   UNL     1     -47.805 -16.691 -18.015  0.00  0.00    +0.000 HD
ENDROOT
BRANCH   1  15
ATOM     13  N   UNL     1     -44.311 -13.385 -21.780  0.00  0.00    +0.000 N 
ATOM     14  C   UNL     1     -43.215 -12.784 -22.527  0.00  0.00    +0.000 C 
ATOM     15  C   UNL     1     -44.051 -13.976 -20.493  0.00  0.00    +0.000 C 
ATOM     16  O   UNL     1     -42.916 -13.827 -19.964  0.00  0.00    +0.000 OA
BRANCH  13  17
ATOM     17  C   UNL     1     -45.675 -13.148 -22.243  0.00  0.00    +0.000 C 
BRANCH  17  21
ATOM     18  C   UNL     1     -46.145 -13.713 -25.721  0.00  0.00    +0.000 A 
ATOM     19  C   UNL     1     -46.064 -15.041 -25.340  0.00  0.00    +0.000 A 
ATOM     20  C   UNL     1     -45.883 -15.019 -23.966  0.00  0.00    +0.000 A 
ATOM     21  C   UNL     1     -45.864 -13.680 -23.625  0.00  0.00    +0.000 A 
ATOM     22  O   UNL     1     -46.015 -12.925 -24.683  0.00  0.00    +0.000 OA
BRANCH  18  26
ATOM     23  C   UNL     1     -43.751 -12.832 -26.998  0.00  0.00    +0.000 C 
ATOM     24  C   UNL     1     -45.032 -12.714 -27.814  0.00  0.00    +0.000 C 
ATOM     25  C   UNL     1     -45.554 -14.105 -28.102  0.00  0.00    +0.000 C 
ATOM     26  C   UNL     1     -46.313 -13.222 -27.131  0.00  0.00    +0.000 C 
ENDBRANCH  18  26
ENDBRANCH  17  21
ENDBRANCH  13  17
ENDBRANCH   1  15
BRANCH   9  27
ATOM     27  S   UNL     1     -43.457 -19.150 -22.099  0.00  0.00    +0.000 S 
ATOM     28  O   UNL     1     -42.261 -18.293 -22.411  0.00  0.00    +0.000 OA
ATOM     29  O   UNL     1     -42.978 -20.400 -21.416  0.00  0.00    +0.000 OA
BRANCH  27  30
ATOM     30  N   UNL     1     -44.265 -19.575 -23.574  0.00  0.00    +0.000 NA
ATOM     31  C   UNL     1     -45.402 -18.666 -23.741  0.00  0.00    +0.000 C 
ATOM     32  C   UNL     1     -46.025 -18.872 -25.123  0.00  0.00    +0.000 C 
ATOM     33  O   UNL     1     -45.074 -18.582 -26.121  0.00  0.00    +0.000 OA
ATOM     34  C   UNL     1     -44.057 -19.546 -26.013  0.00  0.00    +0.000 C 
ATOM     35  C   UNL     1     -43.324 -19.382 -24.680  0.00  0.00    +0.000 C 
ENDBRANCH  27  30
ENDBRANCH   9  27
TORSDOF 6
ENDMDL
MODEL 2
REMARK VINA RESULT:      -6.9      8.803     12.708
REMARK  Name = ZINC000012762430
REMARK  6 active torsions:
REMARK  status: ('A' for Active; 'I' for Inactive)
REMARK    1  A    between atoms: C_1  and  C_15
REMARK    2  A    between atoms: C_9  and  S_27
REMARK    3  A    between atoms: N_13  and  C_17
REMARK    4  A    between atoms: C_17  and  C_21
REMARK    5  A    between atoms: C_18  and  C_26
REMARK    6  A    between atoms: S_27  and  N_30
REMARK                            x       y       z     vdW  Elec       q    Type
REMARK                         _______ _______ _______ _____ _____    ______ ____
ROOT
ATOM      1  C   UNL     1     -45.072  -6.101 -30.277  0.00  0.00    +0.000 A 
ATOM      2  C   UNL     1     -45.763  -4.947 -29.886  0.00  0.00    +0.000 A 
ATOM      3  C   UNL     1     -47.079  -5.034 -29.430  0.00  0.00    +0.000 A 
ATOM      4  O   UNL     1     -47.689  -3.991 -29.078  0.00  0.00    +0.000 OA
ATOM      5  N   UNL     1     -47.702  -6.239 -29.369  0.00  0.00    +0.000 N 
ATOM      6  C   UNL     1     -47.075  -7.385 -29.741  0.00  0.00    +0.000 A 
ATOM      7  C   UNL     1     -47.756  -8.603 -29.660  0.00  0.00    +0.000 A 
ATOM      8  C   UNL     1     -47.118  -9.789 -30.033  0.00  0.00    +0.000 A 
ATOM      9  C   UNL     1     -45.794  -9.763 -30.485  0.00  0.00    +0.000 A 
ATOM     10  C   UNL     1     -45.111  -8.547 -30.569  0.00  0.00    +0.000 A 
ATOM     11  C   UNL     1     -45.738  -7.346 -30.206  0.00  0.00    +0.000 A 
ATOM     12  H   UNL     1     -48.632  -6.282 -29.047  0.00  0.00    +0.000 HD
ENDROOT
BRANCH   1  15
ATOM     13  N   UNL     1     -43.387  -6.157 -32.198  0.00  0.00    +0.000 N 
ATOM     14  C   UNL     1     -41.997  -6.222 -32.627  0.00  0.00    +0.000 C 
ATOM     15  C   UNL     1     -43.690  -5.965 -30.804  0.00  0.00    +0.000 C 
ATOM     16  O   UNL     1     -42.755  -5.700 -30.000  0.00  0.00    +0.000 OA
BRANCH  13  17
ATOM     17  C   UNL     1     -44.422  -6.038 -33.221  0.00  0.00    +0.000 C 
BRANCH  17  21
ATOM     18  C   UNL     1     -44.787  -2.510 -33.466  0.00  0.00    +0.000 A 
ATOM     19  C   UNL     1     -46.121  -2.834 -33.644  0.00  0.00    +0.000 A 
ATOM     20  C   UNL     1     -46.176  -4.217 -33.569  0.00  0.00    +0.000 A 
ATOM     21  C   UNL     1     -44.872  -4.620 -33.355  0.00  0.00    +0.000 A 
ATOM     22  O   UNL     1     -44.066  -3.591 -33.303  0.00  0.00    +0.000 OA
BRANCH  18  26
ATOM     23  C   UNL     1     -44.985  -1.061 -31.016  0.00  0.00    +0.000 C 
ATOM     24  C   UNL     1     -44.352  -0.320 -32.187  0.00  0.00    +0.000 C 
ATOM     25  C   UNL     1     -43.046  -0.998 -32.540  0.00  0.00    +0.000 C 
ATOM     26  C   UNL     1     -44.219  -1.120 -33.494  0.00  0.00    +0.000 C 
ENDBRANCH  18  26
ENDBRANCH  17  21
ENDBRANCH  13  17
ENDBRANCH   1  15
BRANCH   9  27
ATOM     27  S   UNL     1     -44.994 -11.254 -30.964  0.00  0.00    +0.000 S 
ATOM     28  O   UNL     1     -45.833 -11.956 -31.995  0.00  0.00    +0.000 OA
ATOM     29  O   UNL     1     -43.662 -10.929 -31.580  0.00  0.00    +0.000 OA
BRANCH  27  30
ATOM     30  N   UNL     1     -44.757 -12.300 -29.600  0.00  0.00    +0.000 NA
ATOM     31  C   UNL     1     -44.481 -11.459 -28.432  0.00  0.00    +0.000 C 
ATOM     32  C   UNL     1     -44.463 -12.324 -27.170  0.00  0.00    +0.000 C 
ATOM     33  O   UNL     1     -45.721 -12.932 -26.993  0.00  0.00    +0.000 OA
ATOM     34  C   UNL     1     -45.902 -13.825 -28.065  0.00  0.00    +0.000 C 
ATOM     35  C   UNL     1     -45.998 -13.046 -29.379  0.00  0.00    +0.000 C 
ENDBRANCH  27  30
ENDBRANCH   9  27
TORSDOF 6
ENDMDL
MODEL 3
REMARK VINA RESULT:      -6.8     10.483     13.241
REMARK  Name = ZINC000012762430
REMARK  6 active torsions:
REMARK  status: ('A' for Active; 'I' for Inactive)
REMARK    1  A    between atoms: C_1  and  C_15
REMARK    2  A    between atoms: C_9  and  S_27
REMARK    3  A    between atoms: N_13  and  C_17
REMARK    4  A    between atoms: C_17  and  C_21
REMARK    5  A    between atoms: C_18  and  C_26
REMARK    6  A    between atoms: S_27  and  N_30
REMARK                            x       y       z     vdW  Elec       q    Type
REMARK                         _______ _______ _______ _____ _____    ______ ____
ROOT
ATOM      1  C   UNL     1     -45.040  -6.140 -30.288  0.00  0.00    +0.000 A 
ATOM      2  C   UNL     1     -45.719  -4.975 -29.911  0.00  0.00    +0.000 A 
ATOM      3  C   UNL     1     -47.039  -5.042 -29.462  0.00  0.00    +0.000 A 
ATOM      4  O   UNL     1     -47.638  -3.989 -29.123  0.00  0.00    +0.000 OA
ATOM      5  N   UNL     1     -47.677  -6.239 -29.394  0.00  0.00    +0.000 N 
ATOM      6  C   UNL     1     -47.061  -7.396 -29.752  0.00  0.00    +0.000 A 
ATOM      7  C   UNL     1     -47.756  -8.605 -29.664  0.00  0.00    +0.000 A 
ATOM      8  C   UNL     1     -47.131  -9.801 -30.023  0.00  0.00    +0.000 A 
ATOM      9  C   UNL     1     -45.804  -9.795 -30.468  0.00  0.00    +0.000 A 
ATOM     10  C   UNL     1     -45.106  -8.587 -30.558  0.00  0.00    +0.000 A 
ATOM     11  C   UNL     1     -45.721  -7.376 -30.210  0.00  0.00    +0.000 A 
ATOM     12  H   UNL     1     -48.608  -6.268 -29.077  0.00  0.00    +0.000 HD
ENDROOT
BRANCH   1  15
ATOM     13  N   UNL     1     -43.343  -6.242 -32.196  0.00  0.00    +0.000 N 
ATOM     14  C   UNL     1     -41.951  -6.327 -32.615  0.00  0.00    +0.000 C 
ATOM     15  C   UNL     1     -43.653  -6.025 -30.807  0.00  0.00    +0.000 C 
ATOM     16  O   UNL     1     -42.720  -5.756 -30.002  0.00  0.00    +0.000 OA
BRANCH  13  17
ATOM     17  C   UNL     1     -44.370  -6.130 -33.228  0.00  0.00    +0.000 C 
BRANCH  17  21
ATOM     18  C   UNL     1     -44.766  -2.605 -33.465  0.00  0.00    +0.000 A 
ATOM     19  C   UNL     1     -46.094  -2.941 -33.659  0.00  0.00    +0.000 A 
ATOM     20  C   UNL     1     -46.137  -4.324 -33.589  0.00  0.00    +0.000 A 
ATOM     21  C   UNL     1     -44.831  -4.716 -33.362  0.00  0.00    +0.000 A 
ATOM     22  O   UNL     1     -44.036  -3.680 -33.299  0.00  0.00    +0.000 OA
BRANCH  18  26
ATOM     23  C   UNL     1     -45.028  -1.156 -31.022  0.00  0.00    +0.000 C 
ATOM     24  C   UNL     1     -44.378  -0.410 -32.181  0.00  0.00    +0.000 C 
ATOM     25  C   UNL     1     -43.058  -1.076 -32.507  0.00  0.00    +0.000 C 
ATOM     26  C   UNL     1     -44.210  -1.209 -33.484  0.00  0.00    +0.000 C 
ENDBRANCH  18  26
ENDBRANCH  17  21
ENDBRANCH  13  17
ENDBRANCH   1  15
BRANCH   9  27
ATOM     27  S   UNL     1     -45.019 -11.300 -30.928  0.00  0.00    +0.000 S 
ATOM     28  O   UNL     1     -43.741 -11.449 -30.149  0.00  0.00    +0.000 OA
ATOM     29  O   UNL     1     -45.917 -12.455 -30.587  0.00  0.00    +0.000 OA
BRANCH  27  30
ATOM     30  N   UNL     1     -44.669 -11.326 -32.627  0.00  0.00    +0.000 NA
ATOM     31  C   UNL     1     -45.796 -10.705 -33.327  0.00  0.00    +0.000 C 
ATOM     32  C   UNL     1     -45.445 -10.525 -34.806  0.00  0.00    +0.000 C 
ATOM     33  O   UNL     1     -44.326  -9.680 -34.929  0.00  0.00    +0.000 OA
ATOM     34  C   UNL     1     -43.233 -10.356 -34.357  0.00  0.00    +0.000 C 
ATOM     35  C   UNL     1     -43.459 -10.531 -32.853  0.00  0.00    +0.000 C 
ENDBRANCH  27  30
ENDBRANCH   9  27
TORSDOF 6
ENDMDL
