MODEL 1
REMARK VINA RESULT:      -7.5      0.000      0.000
REMARK  Name = ZINC000100627416
REMARK  4 active torsions:
REMARK  status: ('A' for Active; 'I' for Inactive)
REMARK    1  A    between atoms: C_12  and  C_19
REMARK    2  A    between atoms: N_15  and  C_28
REMARK    3  A    between atoms: N_21  and  C_23
REMARK    4  A    between atoms: C_28  and  C_29
REMARK                            x       y       z     vdW  Elec       q    Type
REMARK                         _______ _______ _______ _____ _____    ______ ____
ROOT
ATOM      1  C   UNL     1     -45.758 -18.865 -19.623  0.00  0.00    +0.000 C 
ATOM      2  C   UNL     1     -46.034 -17.413 -19.823  0.00  0.00    +0.000 A 
ATOM      3  C   UNL     1     -46.451 -16.646 -18.737  0.00  0.00    +0.000 A 
ATOM      4  C   UNL     1     -46.711 -15.289 -18.902  0.00  0.00    +0.000 A 
ATOM      5  C   UNL     1     -46.550 -14.711 -20.161  0.00  0.00    +0.000 A 
ATOM      6  N   UNL     1     -46.141 -15.457 -21.230  0.00  0.00    +0.000 N 
ATOM      7  C   UNL     1     -45.881 -16.801 -21.079  0.00  0.00    +0.000 A 
ATOM      8  N   UNL     1     -45.472 -17.540 -22.145  0.00  0.00    +0.000 NA
ATOM      9  C   UNL     1     -45.303 -16.990 -23.376  0.00  0.00    +0.000 A 
ATOM     10  C   UNL     1     -45.571 -15.624 -23.555  0.00  0.00    +0.000 A 
ATOM     11  C   UNL     1     -45.417 -15.062 -24.819  0.00  0.00    +0.000 A 
ATOM     12  C   UNL     1     -45.010 -15.838 -25.907  0.00  0.00    +0.000 A 
ATOM     13  C   UNL     1     -44.756 -17.216 -25.692  0.00  0.00    +0.000 A 
ATOM     14  N   UNL     1     -44.424 -17.978 -26.686  0.00  0.00    +0.000 NA
ATOM     15  N   UNL     1     -44.883 -17.756 -24.433  0.00  0.00    +0.000 N 
ATOM     16  C   UNL     1     -45.992 -14.863 -22.456  0.00  0.00    +0.000 A 
ATOM     17  O   UNL     1     -46.233 -13.630 -22.602  0.00  0.00    +0.000 OA
ATOM     18  H   UNL     1     -44.332 -17.596 -27.589  0.00  0.00    +0.000 HD
ENDROOT
BRANCH  12  19
ATOM     19  C   UNL     1     -44.873 -15.168 -27.227  0.00  0.00    +0.000 C 
ATOM     20  O   UNL     1     -43.968 -15.542 -28.023  0.00  0.00    +0.000 OA
ATOM     21  N   UNL     1     -45.758 -14.113 -27.619  0.00  0.00    +0.000 N 
ATOM     22  H   UNL     1     -46.480 -13.851 -27.002  0.00  0.00    +0.000 HD
BRANCH  21  23
ATOM     23  C   UNL     1     -45.639 -13.413 -28.890  0.00  0.00    +0.000 C 
ATOM     24  C   UNL     1     -44.636 -12.276 -28.771  0.00  0.00    +0.000 C 
ATOM     25  C   UNL     1     -45.408 -10.989 -28.969  0.00  0.00    +0.000 C 
ATOM     26  C   UNL     1     -46.662 -11.382 -29.713  0.00  0.00    +0.000 C 
ATOM     27  C   UNL     1     -46.972 -12.786 -29.245  0.00  0.00    +0.000 C 
ENDBRANCH  21  23
ENDBRANCH  12  19
BRANCH  15  28
ATOM     28  C   UNL     1     -44.586 -19.180 -24.214  0.00  0.00    +0.000 C 
BRANCH  28  29
ATOM     29  C   UNL     1     -43.193 -19.398 -23.612  0.00  0.00    +0.000 C 
ATOM     30  C   UNL     1     -42.207 -19.913 -24.638  0.00  0.00    +0.000 C 
ATOM     31  C   UNL     1     -41.521 -21.050 -23.946  0.00  0.00    +0.000 C 
ATOM     32  C   UNL     1     -42.002 -20.940 -22.521  0.00  0.00    +0.000 C 
ATOM     33  O   UNL     1     -43.242 -20.287 -22.525  0.00  0.00    +0.000 OA
ENDBRANCH  28  29
ENDBRANCH  15  28
TORSDOF 4
ENDMDL
MODEL 2
REMARK VINA RESULT:      -7.3      7.420     11.443
REMARK  Name = ZINC000100627416
REMARK  4 active torsions:
REMARK  status: ('A' for Active; 'I' for Inactive)
REMARK    1  A    between atoms: C_12  and  C_19
REMARK    2  A    between atoms: N_15  and  C_28
REMARK    3  A    between atoms: N_21  and  C_23
REMARK    4  A    between atoms: C_28  and  C_29
REMARK                            x       y       z     vdW  Elec       q    Type
REMARK                         _______ _______ _______ _____ _____    ______ ____
ROOT
ATOM      1  C   UNL     1     -46.512 -13.157 -30.320  0.00  0.00    +0.000 C 
ATOM      2  C   UNL     1     -46.605 -12.240 -29.147  0.00  0.00    +0.000 A 
ATOM      3  C   UNL     1     -46.652 -12.782 -27.865  0.00  0.00    +0.000 A 
ATOM      4  C   UNL     1     -46.737 -11.943 -26.757  0.00  0.00    +0.000 A 
ATOM      5  C   UNL     1     -46.775 -10.562 -26.948  0.00  0.00    +0.000 A 
ATOM      6  N   UNL     1     -46.730 -10.024 -28.203  0.00  0.00    +0.000 N 
ATOM      7  C   UNL     1     -46.646 -10.844 -29.307  0.00  0.00    +0.000 A 
ATOM      8  N   UNL     1     -46.599 -10.304 -30.554  0.00  0.00    +0.000 NA
ATOM      9  C   UNL     1     -46.628  -8.961 -30.756  0.00  0.00    +0.000 A 
ATOM     10  C   UNL     1     -46.722  -8.107 -29.646  0.00  0.00    +0.000 A 
ATOM     11  C   UNL     1     -46.771  -6.732 -29.851  0.00  0.00    +0.000 A 
ATOM     12  C   UNL     1     -46.737  -6.193 -31.140  0.00  0.00    +0.000 A 
ATOM     13  C   UNL     1     -46.649  -7.086 -32.238  0.00  0.00    +0.000 A 
ATOM     14  N   UNL     1     -46.664  -6.627 -33.450  0.00  0.00    +0.000 NA
ATOM     15  N   UNL     1     -46.572  -8.442 -32.024  0.00  0.00    +0.000 N 
ATOM     16  C   UNL     1     -46.770  -8.664 -28.361  0.00  0.00    +0.000 A 
ATOM     17  O   UNL     1     -46.851  -7.905 -27.352  0.00  0.00    +0.000 OA
ATOM     18  H   UNL     1     -46.719  -5.657 -33.608  0.00  0.00    +0.000 HD
ENDROOT
BRANCH  12  19
ATOM     19  C   UNL     1     -46.798  -4.715 -31.278  0.00  0.00    +0.000 C 
ATOM     20  O   UNL     1     -47.670  -4.066 -30.636  0.00  0.00    +0.000 OA
ATOM     21  N   UNL     1     -45.875  -4.009 -32.116  0.00  0.00    +0.000 N 
ATOM     22  H   UNL     1     -45.180  -4.523 -32.587  0.00  0.00    +0.000 HD
BRANCH  21  23
ATOM     23  C   UNL     1     -45.920  -2.566 -32.300  0.00  0.00    +0.000 C 
ATOM     24  C   UNL     1     -45.272  -2.185 -33.623  0.00  0.00    +0.000 C 
ATOM     25  C   UNL     1     -44.041  -1.369 -33.287  0.00  0.00    +0.000 C 
ATOM     26  C   UNL     1     -44.278  -0.838 -31.894  0.00  0.00    +0.000 C 
ATOM     27  C   UNL     1     -45.113  -1.895 -31.207  0.00  0.00    +0.000 C 
ENDBRANCH  21  23
ENDBRANCH  12  19
BRANCH  15  28
ATOM     28  C   UNL     1     -46.449  -9.358 -33.169  0.00  0.00    +0.000 C 
BRANCH  28  29
ATOM     29  C   UNL     1     -44.988  -9.637 -33.537  0.00  0.00    +0.000 C 
ATOM     30  C   UNL     1     -44.560 -11.034 -33.140  0.00  0.00    +0.000 C 
ATOM     31  C   UNL     1     -43.243 -10.833 -32.460  0.00  0.00    +0.000 C 
ATOM     32  C   UNL     1     -42.922  -9.383 -32.730  0.00  0.00    +0.000 C 
ATOM     33  O   UNL     1     -44.126  -8.700 -32.946  0.00  0.00    +0.000 OA
ENDBRANCH  28  29
ENDBRANCH  15  28
TORSDOF 4
ENDMDL
MODEL 3
REMARK VINA RESULT:      -7.1      7.439     12.187
REMARK  Name = ZINC000100627416
REMARK  4 active torsions:
REMARK  status: ('A' for Active; 'I' for Inactive)
REMARK    1  A    between atoms: C_12  and  C_19
REMARK    2  A    between atoms: N_15  and  C_28
REMARK    3  A    between atoms: N_21  and  C_23
REMARK    4  A    between atoms: C_28  and  C_29
REMARK                            x       y       z     vdW  Elec       q    Type
REMARK                         _______ _______ _______ _____ _____    ______ ____
ROOT
ATOM      1  C   UNL     1     -47.412  -2.046 -26.167  0.00  0.00    +0.000 C 
ATOM      2  C   UNL     1     -47.195  -3.308 -25.403  0.00  0.00    +0.000 A 
ATOM      3  C   UNL     1     -47.169  -3.260 -24.011  0.00  0.00    +0.000 A 
ATOM      4  C   UNL     1     -46.970  -4.428 -23.278  0.00  0.00    +0.000 A 
ATOM      5  C   UNL     1     -46.798  -5.636 -23.953  0.00  0.00    +0.000 A 
ATOM      6  N   UNL     1     -46.822  -5.689 -25.318  0.00  0.00    +0.000 N 
ATOM      7  C   UNL     1     -47.018  -4.541 -26.053  0.00  0.00    +0.000 A 
ATOM      8  N   UNL     1     -47.043  -4.598 -27.412  0.00  0.00    +0.000 NA
ATOM      9  C   UNL     1     -46.884  -5.769 -28.084  0.00  0.00    +0.000 A 
ATOM     10  C   UNL     1     -46.675  -6.949 -27.354  0.00  0.00    +0.000 A 
ATOM     11  C   UNL     1     -46.493  -8.147 -28.040  0.00  0.00    +0.000 A 
ATOM     12  C   UNL     1     -46.507  -8.187 -29.436  0.00  0.00    +0.000 A 
ATOM     13  C   UNL     1     -46.714  -6.973 -30.141  0.00  0.00    +0.000 A 
ATOM     14  N   UNL     1     -46.685  -6.963 -31.436  0.00  0.00    +0.000 NA
ATOM     15  N   UNL     1     -46.921  -5.800 -29.454  0.00  0.00    +0.000 N 
ATOM     16  C   UNL     1     -46.649  -6.890 -25.954  0.00  0.00    +0.000 A 
ATOM     17  O   UNL     1     -46.465  -7.947 -25.285  0.00  0.00    +0.000 OA
ATOM     18  H   UNL     1     -46.536  -7.800 -31.932  0.00  0.00    +0.000 HD
ENDROOT
BRANCH  12  19
ATOM     19  C   UNL     1     -46.300  -9.502 -30.097  0.00  0.00    +0.000 C 
ATOM     20  O   UNL     1     -46.848  -9.731 -31.211  0.00  0.00    +0.000 OA
ATOM     21  N   UNL     1     -45.479 -10.512 -29.500  0.00  0.00    +0.000 N 
ATOM     22  H   UNL     1     -45.032 -10.310 -28.646  0.00  0.00    +0.000 HD
BRANCH  21  23
ATOM     23  C   UNL     1     -45.275 -11.822 -30.101  0.00  0.00    +0.000 C 
ATOM     24  C   UNL     1     -46.306 -12.808 -29.574  0.00  0.00    +0.000 C 
ATOM     25  C   UNL     1     -45.547 -13.858 -28.791  0.00  0.00    +0.000 C 
ATOM     26  C   UNL     1     -44.129 -13.798 -29.308  0.00  0.00    +0.000 C 
ATOM     27  C   UNL     1     -43.914 -12.353 -29.697  0.00  0.00    +0.000 C 
ENDBRANCH  21  23
ENDBRANCH  12  19
BRANCH  15  28
ATOM     28  C   UNL     1     -47.166  -4.552 -30.194  0.00  0.00    +0.000 C 
BRANCH  28  29
ATOM     29  C   UNL     1     -45.880  -3.755 -30.433  0.00  0.00    +0.000 C 
ATOM     30  C   UNL     1     -46.070  -2.671 -31.472  0.00  0.00    +0.000 C 
ATOM     31  C   UNL     1     -44.887  -2.819 -32.376  0.00  0.00    +0.000 C 
ATOM     32  C   UNL     1     -44.011  -3.811 -31.653  0.00  0.00    +0.000 C 
ATOM     33  O   UNL     1     -44.825  -4.595 -30.824  0.00  0.00    +0.000 OA
ENDBRANCH  28  29
ENDBRANCH  15  28
TORSDOF 4
ENDMDL
