MODEL 1
REMARK VINA RESULT:      -7.1      0.000      0.000
REMARK  Name = ZINC000018200369
REMARK  2 active torsions:
REMARK  status: ('A' for Active; 'I' for Inactive)
REMARK    1  A    between atoms: C_1  and  C_31
REMARK    2  A    between atoms: C_3  and  O_4
REMARK                            x       y       z     vdW  Elec       q    Type
REMARK                         _______ _______ _______ _____ _____    ______ ____
ROOT
ATOM      1  C   UNL     1     -46.085  -5.712 -32.188  0.00  0.00    +0.000 C 
ATOM      2  C   UNL     1     -46.332  -5.781 -30.713  0.00  0.00    +0.000 A 
ATOM      3  C   UNL     1     -47.036  -4.988 -29.843  0.00  0.00    +0.000 A 
ATOM      4  N   UNL     1     -46.935  -5.484 -28.590  0.00  0.00    +0.000 NA
ATOM      5  N   UNL     1     -46.181  -6.578 -28.637  0.00  0.00    +0.000 N 
ATOM      6  C   UNL     1     -45.821  -6.752 -29.922  0.00  0.00    +0.000 A 
ATOM      7  N   UNL     1     -45.027  -7.810 -30.440  0.00  0.00    +0.000 N 
ATOM      8  C   UNL     1     -44.802  -7.877 -31.860  0.00  0.00    +0.000 C 
ATOM      9  C   UNL     1     -45.291  -6.919 -32.704  0.00  0.00    +0.000 C 
ATOM     10  C   UNL     1     -45.114  -7.080 -34.168  0.00  0.00    +0.000 C 
ATOM     11  O   UNL     1     -45.628  -6.254 -34.968  0.00  0.00    +0.000 OA
ATOM     12  C   UNL     1     -44.302  -8.212 -34.725  0.00  0.00    +0.000 C 
ATOM     13  C   UNL     1     -44.313  -9.430 -33.804  0.00  0.00    +0.000 C 
ATOM     14  C   UNL     1     -43.273 -10.414 -34.292  0.00  0.00    +0.000 C 
ATOM     15  C   UNL     1     -45.672 -10.112 -33.840  0.00  0.00    +0.000 C 
ATOM     16  C   UNL     1     -43.960  -9.016 -32.374  0.00  0.00    +0.000 C 
ATOM     17  H   UNL     1     -45.934  -7.153 -27.877  0.00  0.00    +0.000 HD
ATOM     18  H   UNL     1     -44.637  -8.486 -29.839  0.00  0.00    +0.000 HD
ENDROOT
BRANCH   1  29
ATOM     19  C   UNL     1     -47.591  -3.536 -33.683  0.00  0.00    +0.000 C 
ATOM     20  C   UNL     1     -46.163  -3.381 -33.277  0.00  0.00    +0.000 A 
ATOM     21  N   UNL     1     -45.521  -2.226 -33.594  0.00  0.00    +0.000 NA
ATOM     22  C   UNL     1     -44.222  -2.024 -33.260  0.00  0.00    +0.000 A 
ATOM     23  C   UNL     1     -43.578  -0.830 -33.594  0.00  0.00    +0.000 A 
ATOM     24  C   UNL     1     -42.237  -0.641 -33.241  0.00  0.00    +0.000 A 
ATOM     25  C   UNL     1     -41.542  -1.643 -32.555  0.00  0.00    +0.000 A 
ATOM     26  C   UNL     1     -42.184  -2.840 -32.219  0.00  0.00    +0.000 A 
ATOM     27  C   UNL     1     -43.523  -3.032 -32.569  0.00  0.00    +0.000 A 
ATOM     28  N   UNL     1     -44.160  -4.187 -32.251  0.00  0.00    +0.000 NA
ATOM     29  C   UNL     1     -45.464  -4.395 -32.581  0.00  0.00    +0.000 A 
ENDBRANCH   1  29
BRANCH   3  30
ATOM     30  O   UNL     1     -47.750  -3.844 -30.174  0.00  0.00    +0.000 OA
ATOM     31  H   UNL     1     -47.372  -3.204 -30.744  0.00  0.00    +0.000 HD
ENDBRANCH   3  30
TORSDOF 2
ENDMDL
MODEL 2
REMARK VINA RESULT:      -6.7      2.416      4.774
REMARK  Name = ZINC000018200369
REMARK  2 active torsions:
REMARK  status: ('A' for Active; 'I' for Inactive)
REMARK    1  A    between atoms: C_1  and  C_31
REMARK    2  A    between atoms: C_3  and  O_4
REMARK                            x       y       z     vdW  Elec       q    Type
REMARK                         _______ _______ _______ _____ _____    ______ ____
ROOT
ATOM      1  C   UNL     1     -44.067  -6.530 -31.303  0.00  0.00    +0.000 C 
ATOM      2  C   UNL     1     -45.008  -7.029 -32.355  0.00  0.00    +0.000 A 
ATOM      3  C   UNL     1     -44.881  -7.230 -33.706  0.00  0.00    +0.000 A 
ATOM      4  N   UNL     1     -46.048  -7.687 -34.210  0.00  0.00    +0.000 NA
ATOM      5  N   UNL     1     -46.922  -7.783 -33.213  0.00  0.00    +0.000 N 
ATOM      6  C   UNL     1     -46.287  -7.384 -32.096  0.00  0.00    +0.000 A 
ATOM      7  N   UNL     1     -46.833  -7.342 -30.785  0.00  0.00    +0.000 N 
ATOM      8  C   UNL     1     -45.981  -6.955 -29.690  0.00  0.00    +0.000 C 
ATOM      9  C   UNL     1     -44.682  -6.582 -29.898  0.00  0.00    +0.000 C 
ATOM     10  C   UNL     1     -43.816  -6.282 -28.731  0.00  0.00    +0.000 C 
ATOM     11  O   UNL     1     -42.595  -6.016 -28.894  0.00  0.00    +0.000 OA
ATOM     12  C   UNL     1     -44.377  -6.264 -27.340  0.00  0.00    +0.000 C 
ATOM     13  C   UNL     1     -45.579  -7.196 -27.199  0.00  0.00    +0.000 C 
ATOM     14  C   UNL     1     -46.245  -6.925 -25.867  0.00  0.00    +0.000 C 
ATOM     15  C   UNL     1     -45.132  -8.649 -27.224  0.00  0.00    +0.000 C 
ATOM     16  C   UNL     1     -46.592  -6.928 -28.314  0.00  0.00    +0.000 C 
ATOM     17  H   UNL     1     -47.855  -8.089 -33.278  0.00  0.00    +0.000 HD
ATOM     18  H   UNL     1     -47.777  -7.573 -30.626  0.00  0.00    +0.000 HD
ENDROOT
BRANCH   1  29
ATOM     19  C   UNL     1     -41.191  -6.052 -32.159  0.00  0.00    +0.000 C 
ATOM     20  C   UNL     1     -42.184  -4.943 -32.050  0.00  0.00    +0.000 A 
ATOM     21  N   UNL     1     -41.778  -3.679 -32.341  0.00  0.00    +0.000 NA
ATOM     22  C   UNL     1     -42.629  -2.626 -32.256  0.00  0.00    +0.000 A 
ATOM     23  C   UNL     1     -42.195  -1.333 -32.560  0.00  0.00    +0.000 A 
ATOM     24  C   UNL     1     -43.088  -0.260 -32.466  0.00  0.00    +0.000 A 
ATOM     25  C   UNL     1     -44.412  -0.479 -32.069  0.00  0.00    +0.000 A 
ATOM     26  C   UNL     1     -44.850  -1.772 -31.764  0.00  0.00    +0.000 A 
ATOM     27  C   UNL     1     -43.962  -2.846 -31.858  0.00  0.00    +0.000 A 
ATOM     28  N   UNL     1     -44.370  -4.107 -31.565  0.00  0.00    +0.000 NA
ATOM     29  C   UNL     1     -43.522  -5.168 -31.652  0.00  0.00    +0.000 A 
ENDBRANCH   1  29
BRANCH   3  30
ATOM     30  O   UNL     1     -43.739  -7.004 -34.463  0.00  0.00    +0.000 OA
ATOM     31  H   UNL     1     -42.944  -6.738 -34.045  0.00  0.00    +0.000 HD
ENDBRANCH   3  30
TORSDOF 2
ENDMDL
MODEL 3
REMARK VINA RESULT:      -6.6     15.593     17.963
REMARK  Name = ZINC000018200369
REMARK  2 active torsions:
REMARK  status: ('A' for Active; 'I' for Inactive)
REMARK    1  A    between atoms: C_1  and  C_31
REMARK    2  A    between atoms: C_3  and  O_4
REMARK                            x       y       z     vdW  Elec       q    Type
REMARK                         _______ _______ _______ _____ _____    ______ ____
ROOT
ATOM      1  C   UNL     1     -43.130 -18.100 -20.243  0.00  0.00    +0.000 C 
ATOM      2  C   UNL     1     -43.139 -19.391 -19.483  0.00  0.00    +0.000 A 
ATOM      3  C   UNL     1     -42.229 -20.410 -19.359  0.00  0.00    +0.000 A 
ATOM      4  N   UNL     1     -42.732 -21.373 -18.555  0.00  0.00    +0.000 NA
ATOM      5  N   UNL     1     -43.944 -20.994 -18.162  0.00  0.00    +0.000 N 
ATOM      6  C   UNL     1     -44.183 -19.797 -18.725  0.00  0.00    +0.000 A 
ATOM      7  N   UNL     1     -45.353 -19.007 -18.564  0.00  0.00    +0.000 N 
ATOM      8  C   UNL     1     -45.406 -17.710 -19.188  0.00  0.00    +0.000 C 
ATOM      9  C   UNL     1     -44.380 -17.254 -19.968  0.00  0.00    +0.000 C 
ATOM     10  C   UNL     1     -44.438 -15.875 -20.513  0.00  0.00    +0.000 C 
ATOM     11  O   UNL     1     -43.469 -15.405 -21.166  0.00  0.00    +0.000 OA
ATOM     12  C   UNL     1     -45.658 -15.023 -20.322  0.00  0.00    +0.000 C 
ATOM     13  C   UNL     1     -46.415 -15.389 -19.047  0.00  0.00    +0.000 C 
ATOM     14  C   UNL     1     -47.754 -14.684 -19.062  0.00  0.00    +0.000 C 
ATOM     15  C   UNL     1     -45.645 -14.928 -17.819  0.00  0.00    +0.000 C 
ATOM     16  C   UNL     1     -46.659 -16.898 -18.990  0.00  0.00    +0.000 C 
ATOM     17  H   UNL     1     -44.551 -21.494 -17.569  0.00  0.00    +0.000 HD
ATOM     18  H   UNL     1     -46.114 -19.339 -18.035  0.00  0.00    +0.000 HD
ENDROOT
BRANCH   1  29
ATOM     19  C   UNL     1     -40.505 -17.452 -21.628  0.00  0.00    +0.000 C 
ATOM     20  C   UNL     1     -41.670 -18.027 -22.361  0.00  0.00    +0.000 A 
ATOM     21  N   UNL     1     -41.546 -18.262 -23.694  0.00  0.00    +0.000 NA
ATOM     22  C   UNL     1     -42.570 -18.778 -24.419  0.00  0.00    +0.000 A 
ATOM     23  C   UNL     1     -42.425 -19.013 -25.789  0.00  0.00    +0.000 A 
ATOM     24  C   UNL     1     -43.492 -19.545 -26.520  0.00  0.00    +0.000 A 
ATOM     25  C   UNL     1     -44.703 -19.842 -25.884  0.00  0.00    +0.000 A 
ATOM     26  C   UNL     1     -44.852 -19.608 -24.512  0.00  0.00    +0.000 A 
ATOM     27  C   UNL     1     -43.788 -19.077 -23.779  0.00  0.00    +0.000 A 
ATOM     28  N   UNL     1     -43.915 -18.843 -22.448  0.00  0.00    +0.000 NA
ATOM     29  C   UNL     1     -42.892 -18.329 -21.714  0.00  0.00    +0.000 A 
ENDBRANCH   1  29
BRANCH   3  30
ATOM     30  O   UNL     1     -40.978 -20.468 -19.958  0.00  0.00    +0.000 OA
ATOM     31  H   UNL     1     -40.877 -20.881 -20.793  0.00  0.00    +0.000 HD
ENDBRANCH   3  30
TORSDOF 2
ENDMDL
