MODEL 1
REMARK VINA RESULT:      -6.7      0.000      0.000
REMARK  Name = ZINC000031809867
REMARK  2 active torsions:
REMARK  status: ('A' for Active; 'I' for Inactive)
REMARK    1  A    between atoms: C_7  and  C_24
REMARK    2  A    between atoms: C_28  and  O_29
REMARK                            x       y       z     vdW  Elec       q    Type
REMARK                         _______ _______ _______ _____ _____    ______ ____
ROOT
ATOM      1  C   UNL     1     -43.213 -12.619 -24.364  0.00  0.00    +0.000 C 
ATOM      2  C   UNL     1     -43.967 -13.780 -23.813  0.00  0.00    +0.000 A 
ATOM      3  N   UNL     1     -44.524 -13.787 -22.589  0.00  0.00    +0.000 NA
ATOM      4  N   UNL     1     -45.115 -14.959 -22.426  0.00  0.00    +0.000 N 
ATOM      5  C   UNL     1     -44.976 -15.702 -23.547  0.00  0.00    +0.000 A 
ATOM      6  C   UNL     1     -44.217 -14.976 -24.464  0.00  0.00    +0.000 A 
ATOM      7  C   UNL     1     -43.793 -15.280 -25.873  0.00  0.00    +0.000 C 
ATOM      8  S   UNL     1     -43.485 -17.041 -26.216  0.00  0.00    +0.000 S 
ATOM      9  C   UNL     1     -45.247 -17.445 -26.191  0.00  0.00    +0.000 C 
ATOM     10  C   UNL     1     -45.652 -17.868 -24.828  0.00  0.00    +0.000 C 
ATOM     11  O   UNL     1     -46.114 -19.028 -24.676  0.00  0.00    +0.000 OA
ATOM     12  N   UNL     1     -45.577 -17.001 -23.693  0.00  0.00    +0.000 N 
ATOM     13  H   UNL     1     -46.005 -17.350 -22.879  0.00  0.00    +0.000 HD
ATOM     14  C   UNL     1     -45.840 -15.298 -21.235  0.00  0.00    +0.000 A 
ATOM     15  N   UNL     1     -46.651 -14.372 -20.639  0.00  0.00    +0.000 NA
ATOM     16  C   UNL     1     -47.334 -14.655 -19.483  0.00  0.00    +0.000 A 
ATOM     17  N   UNL     1     -47.209 -15.877 -18.885  0.00  0.00    +0.000 NA
ATOM     18  C   UNL     1     -46.395 -16.791 -19.466  0.00  0.00    +0.000 A 
ATOM     19  N   UNL     1     -46.104 -18.010 -19.000  0.00  0.00    +0.000 N 
ATOM     20  C   UNL     1     -45.208 -18.469 -19.916  0.00  0.00    +0.000 A 
ATOM     21  N   UNL     1     -44.937 -17.583 -20.913  0.00  0.00    +0.000 NA
ATOM     22  C   UNL     1     -45.715 -16.536 -20.604  0.00  0.00    +0.000 A 
ATOM     23  H   UNL     1     -46.450 -18.462 -18.196  0.00  0.00    +0.000 HD
ENDROOT
BRANCH   7  24
ATOM     24  C   UNL     1     -44.602 -14.587 -26.936  0.00  0.00    +0.000 A 
ATOM     25  C   UNL     1     -44.153 -14.619 -28.260  0.00  0.00    +0.000 A 
ATOM     26  C   UNL     1     -44.889 -13.992 -29.270  0.00  0.00    +0.000 A 
ATOM     27  C   UNL     1     -46.082 -13.333 -28.959  0.00  0.00    +0.000 A 
ATOM     28  C   UNL     1     -46.539 -13.301 -27.639  0.00  0.00    +0.000 A 
ATOM     29  C   UNL     1     -45.802 -13.926 -26.630  0.00  0.00    +0.000 A 
BRANCH  28  30
ATOM     30  O   UNL     1     -47.723 -12.647 -27.330  0.00  0.00    +0.000 OA
ATOM     31  H   UNL     1     -48.406 -12.587 -27.969  0.00  0.00    +0.000 HD
ENDBRANCH  28  30
ENDBRANCH   7  24
TORSDOF 2
ENDMDL
MODEL 2
REMARK VINA RESULT:      -6.1      2.990      4.772
REMARK  Name = ZINC000031809867
REMARK  2 active torsions:
REMARK  status: ('A' for Active; 'I' for Inactive)
REMARK    1  A    between atoms: C_7  and  C_24
REMARK    2  A    between atoms: C_28  and  O_29
REMARK                            x       y       z     vdW  Elec       q    Type
REMARK                         _______ _______ _______ _____ _____    ______ ____
ROOT
ATOM      1  C   UNL     1     -42.527 -20.882 -22.788  0.00  0.00    +0.000 C 
ATOM      2  C   UNL     1     -43.137 -19.596 -22.347  0.00  0.00    +0.000 A 
ATOM      3  N   UNL     1     -42.868 -19.016 -21.164  0.00  0.00    +0.000 NA
ATOM      4  N   UNL     1     -43.567 -17.895 -21.101  0.00  0.00    +0.000 N 
ATOM      5  C   UNL     1     -44.262 -17.724 -22.248  0.00  0.00    +0.000 A 
ATOM      6  C   UNL     1     -44.024 -18.821 -23.074  0.00  0.00    +0.000 A 
ATOM      7  C   UNL     1     -44.489 -19.143 -24.467  0.00  0.00    +0.000 C 
ATOM      8  S   UNL     1     -46.151 -18.528 -24.880  0.00  0.00    +0.000 S 
ATOM      9  C   UNL     1     -45.586 -16.814 -24.991  0.00  0.00    +0.000 C 
ATOM     10  C   UNL     1     -45.754 -16.138 -23.682  0.00  0.00    +0.000 C 
ATOM     11  O   UNL     1     -46.509 -15.134 -23.620  0.00  0.00    +0.000 OA
ATOM     12  N   UNL     1     -45.063 -16.555 -22.500  0.00  0.00    +0.000 N 
ATOM     13  H   UNL     1     -45.149 -15.942 -21.735  0.00  0.00    +0.000 HD
ATOM     14  C   UNL     1     -43.495 -17.003 -19.979  0.00  0.00    +0.000 A 
ATOM     15  N   UNL     1     -42.291 -16.738 -19.390  0.00  0.00    +0.000 NA
ATOM     16  C   UNL     1     -42.192 -15.915 -18.297  0.00  0.00    +0.000 A 
ATOM     17  N   UNL     1     -43.309 -15.343 -17.757  0.00  0.00    +0.000 NA
ATOM     18  C   UNL     1     -44.506 -15.615 -18.330  0.00  0.00    +0.000 A 
ATOM     19  N   UNL     1     -45.705 -15.198 -17.910  0.00  0.00    +0.000 N 
ATOM     20  C   UNL     1     -46.551 -15.802 -18.789  0.00  0.00    +0.000 A 
ATOM     21  N   UNL     1     -45.922 -16.571 -19.719  0.00  0.00    +0.000 NA
ATOM     22  C   UNL     1     -44.627 -16.421 -19.407  0.00  0.00    +0.000 A 
ATOM     23  H   UNL     1     -45.922 -14.604 -17.155  0.00  0.00    +0.000 HD
ENDROOT
BRANCH   7  24
ATOM     24  C   UNL     1     -43.465 -18.897 -25.543  0.00  0.00    +0.000 A 
ATOM     25  C   UNL     1     -42.328 -18.140 -25.238  0.00  0.00    +0.000 A 
ATOM     26  C   UNL     1     -41.356 -17.904 -26.214  0.00  0.00    +0.000 A 
ATOM     27  C   UNL     1     -41.515 -18.427 -27.500  0.00  0.00    +0.000 A 
ATOM     28  C   UNL     1     -42.645 -19.187 -27.810  0.00  0.00    +0.000 A 
ATOM     29  C   UNL     1     -43.618 -19.423 -26.835  0.00  0.00    +0.000 A 
BRANCH  28  30
ATOM     30  O   UNL     1     -42.802 -19.707 -29.087  0.00  0.00    +0.000 OA
ATOM     31  H   UNL     1     -42.689 -19.155 -29.836  0.00  0.00    +0.000 HD
ENDBRANCH  28  30
ENDBRANCH   7  24
TORSDOF 2
ENDMDL
MODEL 3
REMARK VINA RESULT:      -6.0     10.842     13.332
REMARK  Name = ZINC000031809867
REMARK  2 active torsions:
REMARK  status: ('A' for Active; 'I' for Inactive)
REMARK    1  A    between atoms: C_7  and  C_24
REMARK    2  A    between atoms: C_28  and  O_29
REMARK                            x       y       z     vdW  Elec       q    Type
REMARK                         _______ _______ _______ _____ _____    ______ ____
ROOT
ATOM      1  C   UNL     1     -44.150  -8.656 -37.511  0.00  0.00    +0.000 C 
ATOM      2  C   UNL     1     -44.640  -8.310 -36.147  0.00  0.00    +0.000 A 
ATOM      3  N   UNL     1     -45.068  -7.082 -35.804  0.00  0.00    +0.000 NA
ATOM      4  N   UNL     1     -45.434  -7.128 -34.534  0.00  0.00    +0.000 N 
ATOM      5  C   UNL     1     -45.280  -8.384 -34.057  0.00  0.00    +0.000 A 
ATOM      6  C   UNL     1     -44.746  -9.176 -35.073  0.00  0.00    +0.000 A 
ATOM      7  C   UNL     1     -44.414 -10.641 -35.126  0.00  0.00    +0.000 C 
ATOM      8  S   UNL     1     -43.847 -11.355 -33.551  0.00  0.00    +0.000 S 
ATOM      9  C   UNL     1     -45.506 -11.307 -32.832  0.00  0.00    +0.000 C 
ATOM     10  C   UNL     1     -45.700 -10.039 -32.089  0.00  0.00    +0.000 C 
ATOM     11  O   UNL     1     -45.943 -10.100 -30.856  0.00  0.00    +0.000 OA
ATOM     12  N   UNL     1     -45.663  -8.756 -32.722  0.00  0.00    +0.000 N 
ATOM     13  H   UNL     1     -45.946  -8.007 -32.150  0.00  0.00    +0.000 HD
ATOM     14  C   UNL     1     -45.973  -5.990 -33.845  0.00  0.00    +0.000 A 
ATOM     15  N   UNL     1     -46.867  -5.169 -34.474  0.00  0.00    +0.000 NA
ATOM     16  C   UNL     1     -47.378  -4.056 -33.854  0.00  0.00    +0.000 A 
ATOM     17  N   UNL     1     -46.992  -3.730 -32.586  0.00  0.00    +0.000 NA
ATOM     18  C   UNL     1     -46.095  -4.535 -31.966  0.00  0.00    +0.000 A 
ATOM     19  N   UNL     1     -45.558  -4.347 -30.755  0.00  0.00    +0.000 N 
ATOM     20  C   UNL     1     -44.690  -5.390 -30.653  0.00  0.00    +0.000 A 
ATOM     21  N   UNL     1     -44.670  -6.199 -31.748  0.00  0.00    +0.000 NA
ATOM     22  C   UNL     1     -45.580  -5.635 -32.554  0.00  0.00    +0.000 A 
ATOM     23  H   UNL     1     -45.744  -3.634 -30.102  0.00  0.00    +0.000 HD
ENDROOT
BRANCH   7  24
ATOM     24  C   UNL     1     -45.428 -11.488 -35.848  0.00  0.00    +0.000 A 
ATOM     25  C   UNL     1     -46.730 -11.002 -36.005  0.00  0.00    +0.000 A 
ATOM     26  C   UNL     1     -47.690 -11.762 -36.680  0.00  0.00    +0.000 A 
ATOM     27  C   UNL     1     -47.349 -13.011 -37.205  0.00  0.00    +0.000 A 
ATOM     28  C   UNL     1     -46.049 -13.501 -37.056  0.00  0.00    +0.000 A 
ATOM     29  C   UNL     1     -45.090 -12.742 -36.381  0.00  0.00    +0.000 A 
BRANCH  28  30
ATOM     30  O   UNL     1     -45.711 -14.742 -37.578  0.00  0.00    +0.000 OA
ATOM     31  H   UNL     1     -46.042 -15.523 -37.183  0.00  0.00    +0.000 HD
ENDBRANCH  28  30
ENDBRANCH   7  24
TORSDOF 2
ENDMDL
