MODEL 1
REMARK VINA RESULT:      -6.2      0.000      0.000
REMARK  Name = ZINC000018195878 ZINC18195878
REMARK  2 active torsions:
REMARK  status: ('A' for Active; 'I' for Inactive)
REMARK    1  A    between atoms: C_6  and  C_21
REMARK    2  A    between atoms: C_11  and  O_12
REMARK                            x       y       z     vdW  Elec       q    Type
REMARK                         _______ _______ _______ _____ _____    ______ ____
ROOT
ATOM      1  C   UNL     1     -44.006  -0.166 -32.182  0.00  0.00    +0.000 C 
ATOM      2  C   UNL     1     -44.228  -1.659 -32.288  0.00  0.00    +0.000 C 
ATOM      3  C   UNL     1     -45.250  -2.077 -31.228  0.00  0.00    +0.000 C 
ATOM      4  C   UNL     1     -45.367  -3.570 -31.057  0.00  0.00    +0.000 C 
ATOM      5  C   UNL     1     -44.341  -4.411 -31.383  0.00  0.00    +0.000 C 
ATOM      6  C   UNL     1     -44.467  -5.935 -31.266  0.00  0.00    +0.000 C 
ATOM      7  C   UNL     1     -45.695  -6.331 -30.505  0.00  0.00    +0.000 A 
ATOM      8  C   UNL     1     -46.678  -5.460 -30.180  0.00  0.00    +0.000 A 
ATOM      9  N   UNL     1     -47.697  -6.079 -29.558  0.00  0.00    +0.000 N 
ATOM     10  N   UNL     1     -47.381  -7.369 -29.486  0.00  0.00    +0.000 NA
ATOM     11  C   UNL     1     -46.171  -7.539 -30.060  0.00  0.00    +0.000 A 
ATOM     12  N   UNL     1     -46.579  -4.070 -30.460  0.00  0.00    +0.000 N 
ATOM     13  C   UNL     1     -43.069  -3.847 -31.899  0.00  0.00    +0.000 C 
ATOM     14  O   UNL     1     -42.101  -4.604 -32.168  0.00  0.00    +0.000 OA
ATOM     15  C   UNL     1     -42.895  -2.367 -32.056  0.00  0.00    +0.000 C 
ATOM     16  C   UNL     1     -44.756  -1.966 -33.681  0.00  0.00    +0.000 C 
ATOM     17  H   UNL     1     -48.521  -5.657 -29.221  0.00  0.00    +0.000 HD
ATOM     18  H   UNL     1     -47.322  -3.461 -30.249  0.00  0.00    +0.000 HD
ENDROOT
BRANCH   6  19
ATOM     19  C   UNL     1     -44.456  -6.589 -32.618  0.00  0.00    +0.000 A 
ATOM     20  C   UNL     1     -45.359  -6.157 -33.592  0.00  0.00    +0.000 A 
ATOM     21  C   UNL     1     -45.346  -6.757 -34.853  0.00  0.00    +0.000 A 
ATOM     22  N   UNL     1     -44.460  -7.752 -35.126  0.00  0.00    +0.000 NA
ATOM     23  C   UNL     1     -43.568  -8.188 -34.195  0.00  0.00    +0.000 A 
ATOM     24  C   UNL     1     -43.549  -7.613 -32.923  0.00  0.00    +0.000 A 
ENDBRANCH   6  19
BRANCH  11  25
ATOM     25  O   UNL     1     -45.529  -8.765 -30.179  0.00  0.00    +0.000 OA
ATOM     26  H   UNL     1     -45.397  -9.301 -29.422  0.00  0.00    +0.000 HD
ENDBRANCH  11  25
TORSDOF 2
ENDMDL
MODEL 2
REMARK VINA RESULT:      -6.2      2.300      3.762
REMARK  Name = ZINC000018195878 ZINC18195878
REMARK  2 active torsions:
REMARK  status: ('A' for Active; 'I' for Inactive)
REMARK    1  A    between atoms: C_6  and  C_21
REMARK    2  A    between atoms: C_11  and  O_12
REMARK                            x       y       z     vdW  Elec       q    Type
REMARK                         _______ _______ _______ _____ _____    ______ ____
ROOT
ATOM      1  C   UNL     1     -43.692  -0.526 -33.359  0.00  0.00    +0.000 C 
ATOM      2  C   UNL     1     -44.022  -1.816 -32.639  0.00  0.00    +0.000 C 
ATOM      3  C   UNL     1     -44.615  -2.801 -33.650  0.00  0.00    +0.000 C 
ATOM      4  C   UNL     1     -45.221  -4.026 -33.016  0.00  0.00    +0.000 C 
ATOM      5  C   UNL     1     -45.676  -4.015 -31.728  0.00  0.00    +0.000 C 
ATOM      6  C   UNL     1     -46.245  -5.269 -31.053  0.00  0.00    +0.000 C 
ATOM      7  C   UNL     1     -46.491  -6.366 -32.043  0.00  0.00    +0.000 A 
ATOM      8  C   UNL     1     -46.043  -6.327 -33.319  0.00  0.00    +0.000 A 
ATOM      9  N   UNL     1     -46.340  -7.459 -33.979  0.00  0.00    +0.000 N 
ATOM     10  N   UNL     1     -46.979  -8.251 -33.123  0.00  0.00    +0.000 NA
ATOM     11  C   UNL     1     -47.076  -7.604 -31.941  0.00  0.00    +0.000 A 
ATOM     12  N   UNL     1     -45.374  -5.190 -33.849  0.00  0.00    +0.000 N 
ATOM     13  C   UNL     1     -45.595  -2.764 -30.935  0.00  0.00    +0.000 C 
ATOM     14  O   UNL     1     -46.045  -2.725 -29.760  0.00  0.00    +0.000 OA
ATOM     15  C   UNL     1     -45.030  -1.512 -31.533  0.00  0.00    +0.000 C 
ATOM     16  C   UNL     1     -42.737  -2.375 -32.048  0.00  0.00    +0.000 C 
ATOM     17  H   UNL     1     -46.124  -7.665 -34.918  0.00  0.00    +0.000 HD
ATOM     18  H   UNL     1     -45.022  -5.199 -34.768  0.00  0.00    +0.000 HD
ENDROOT
BRANCH   6  19
ATOM     19  C   UNL     1     -45.345  -5.752 -29.952  0.00  0.00    +0.000 A 
ATOM     20  C   UNL     1     -43.979  -5.903 -30.204  0.00  0.00    +0.000 A 
ATOM     21  C   UNL     1     -43.138  -6.344 -29.180  0.00  0.00    +0.000 A 
ATOM     22  N   UNL     1     -43.647  -6.621 -27.949  0.00  0.00    +0.000 NA
ATOM     23  C   UNL     1     -44.972  -6.477 -27.679  0.00  0.00    +0.000 A 
ATOM     24  C   UNL     1     -45.846  -6.039 -28.675  0.00  0.00    +0.000 A 
ENDBRANCH   6  19
BRANCH  11  25
ATOM     25  O   UNL     1     -47.672  -8.136 -30.806  0.00  0.00    +0.000 OA
ATOM     26  H   UNL     1     -48.572  -8.397 -30.828  0.00  0.00    +0.000 HD
ENDBRANCH  11  25
TORSDOF 2
ENDMDL
MODEL 3
REMARK VINA RESULT:      -5.9     13.391     16.008
REMARK  Name = ZINC000018195878 ZINC18195878
REMARK  2 active torsions:
REMARK  status: ('A' for Active; 'I' for Inactive)
REMARK    1  A    between atoms: C_6  and  C_21
REMARK    2  A    between atoms: C_11  and  O_12
REMARK                            x       y       z     vdW  Elec       q    Type
REMARK                         _______ _______ _______ _____ _____    ______ ____
ROOT
ATOM      1  C   UNL     1     -46.179 -15.477 -18.222  0.00  0.00    +0.000 C 
ATOM      2  C   UNL     1     -45.562 -16.167 -19.420  0.00  0.00    +0.000 C 
ATOM      3  C   UNL     1     -45.902 -15.361 -20.675  0.00  0.00    +0.000 C 
ATOM      4  C   UNL     1     -45.568 -16.074 -21.960  0.00  0.00    +0.000 C 
ATOM      5  C   UNL     1     -45.493 -17.436 -22.024  0.00  0.00    +0.000 C 
ATOM      6  C   UNL     1     -45.100 -18.172 -23.311  0.00  0.00    +0.000 C 
ATOM      7  C   UNL     1     -45.101 -17.254 -24.495  0.00  0.00    +0.000 A 
ATOM      8  C   UNL     1     -45.203 -15.909 -24.389  0.00  0.00    +0.000 A 
ATOM      9  N   UNL     1     -45.113 -15.313 -25.591  0.00  0.00    +0.000 N 
ATOM     10  N   UNL     1     -44.941 -16.277 -26.490  0.00  0.00    +0.000 NA
ATOM     11  C   UNL     1     -44.927 -17.462 -25.840  0.00  0.00    +0.000 A 
ATOM     12  N   UNL     1     -45.407 -15.263 -23.139  0.00  0.00    +0.000 N 
ATOM     13  C   UNL     1     -45.768 -18.242 -20.809  0.00  0.00    +0.000 C 
ATOM     14  O   UNL     1     -45.741 -19.499 -20.860  0.00  0.00    +0.000 OA
ATOM     15  C   UNL     1     -46.135 -17.578 -19.517  0.00  0.00    +0.000 C 
ATOM     16  C   UNL     1     -44.055 -16.219 -19.218  0.00  0.00    +0.000 C 
ATOM     17  H   UNL     1     -45.164 -14.346 -25.771  0.00  0.00    +0.000 HD
ATOM     18  H   UNL     1     -45.439 -14.281 -23.081  0.00  0.00    +0.000 HD
ENDROOT
BRANCH   6  19
ATOM     19  C   UNL     1     -43.763 -18.841 -23.171  0.00  0.00    +0.000 A 
ATOM     20  C   UNL     1     -43.632 -20.186 -23.526  0.00  0.00    +0.000 A 
ATOM     21  C   UNL     1     -42.388 -20.809 -23.405  0.00  0.00    +0.000 A 
ATOM     22  N   UNL     1     -41.315 -20.108 -22.947  0.00  0.00    +0.000 NA
ATOM     23  C   UNL     1     -41.417 -18.796 -22.600  0.00  0.00    +0.000 A 
ATOM     24  C   UNL     1     -42.643 -18.138 -22.707  0.00  0.00    +0.000 A 
ENDBRANCH   6  19
BRANCH  11  25
ATOM     25  O   UNL     1     -44.752 -18.691 -26.462  0.00  0.00    +0.000 OA
ATOM     26  H   UNL     1     -43.902 -18.947 -26.764  0.00  0.00    +0.000 HD
ENDBRANCH  11  25
TORSDOF 2
ENDMDL
