MODEL 1
REMARK VINA RESULT:      -7.0      0.000      0.000
REMARK  Name = ZINC000031809732
REMARK  3 active torsions:
REMARK  status: ('A' for Active; 'I' for Inactive)
REMARK    1  A    between atoms: C_1  and  C_26
REMARK    2  A    between atoms: C_24  and  O_33
REMARK    3  A    between atoms: C_29  and  O_30
REMARK                            x       y       z     vdW  Elec       q    Type
REMARK                         _______ _______ _______ _____ _____    ______ ____
ROOT
ATOM      1  C   UNL     1     -45.625 -15.935 -19.946  0.00  0.00    +0.000 C 
ATOM      2  S   UNL     1     -46.987 -15.100 -19.086  0.00  0.00    +0.000 S 
ATOM      3  C   UNL     1     -46.023 -13.579 -19.081  0.00  0.00    +0.000 C 
ATOM      4  C   UNL     1     -46.428 -12.752 -20.241  0.00  0.00    +0.000 C 
ATOM      5  O   UNL     1     -46.887 -11.600 -20.027  0.00  0.00    +0.000 OA
ATOM      6  N   UNL     1     -46.307 -13.207 -21.592  0.00  0.00    +0.000 N 
ATOM      7  C   UNL     1     -45.861 -14.470 -22.118  0.00  0.00    +0.000 A 
ATOM      8  C   UNL     1     -45.635 -15.675 -21.442  0.00  0.00    +0.000 A 
ATOM      9  C   UNL     1     -45.286 -16.556 -22.472  0.00  0.00    +0.000 A 
ATOM     10  C   UNL     1     -44.843 -17.972 -22.352  0.00  0.00    +0.000 C 
ATOM     11  N   UNL     1     -45.345 -15.931 -23.662  0.00  0.00    +0.000 NA
ATOM     12  N   UNL     1     -45.686 -14.674 -23.442  0.00  0.00    +0.000 N 
ATOM     13  H   UNL     1     -46.571 -12.548 -22.274  0.00  0.00    +0.000 HD
ATOM     14  C   UNL     1     -45.861 -13.726 -24.506  0.00  0.00    +0.000 A 
ATOM     15  N   UNL     1     -46.364 -14.134 -25.710  0.00  0.00    +0.000 NA
ATOM     16  C   UNL     1     -46.516 -13.261 -26.756  0.00  0.00    +0.000 A 
ATOM     17  N   UNL     1     -46.150 -11.950 -26.625  0.00  0.00    +0.000 NA
ATOM     18  C   UNL     1     -45.638 -11.547 -25.437  0.00  0.00    +0.000 A 
ATOM     19  N   UNL     1     -45.173 -10.328 -25.141  0.00  0.00    +0.000 N 
ATOM     20  C   UNL     1     -44.726 -10.486 -23.865  0.00  0.00    +0.000 A 
ATOM     21  N   UNL     1     -44.890 -11.747 -23.375  0.00  0.00    +0.000 NA
ATOM     22  C   UNL     1     -45.481 -12.389 -24.393  0.00  0.00    +0.000 A 
ATOM     23  H   UNL     1     -45.161  -9.520 -25.703  0.00  0.00    +0.000 HD
ENDROOT
BRANCH   1  26
ATOM     24  C   UNL     1     -44.430 -19.333 -18.679  0.00  0.00    +0.000 A 
ATOM     25  C   UNL     1     -44.436 -17.977 -19.044  0.00  0.00    +0.000 A 
ATOM     26  C   UNL     1     -45.601 -17.381 -19.551  0.00  0.00    +0.000 A 
ATOM     27  C   UNL     1     -46.760 -18.147 -19.696  0.00  0.00    +0.000 A 
ATOM     28  C   UNL     1     -46.761 -19.497 -19.336  0.00  0.00    +0.000 A 
ATOM     29  C   UNL     1     -45.602 -20.089 -18.827  0.00  0.00    +0.000 A 
BRANCH  29  30
ATOM     30  O   UNL     1     -45.619 -21.432 -18.472  0.00  0.00    +0.000 OA
ATOM     31  H   UNL     1     -46.042 -21.702 -17.680  0.00  0.00    +0.000 HD
ENDBRANCH  29  30
BRANCH  24  33
ATOM     32  C   UNL     1     -42.410 -19.298 -17.249  0.00  0.00    +0.000 C 
ATOM     33  O   UNL     1     -43.280 -19.944 -18.169  0.00  0.00    +0.000 OA
ENDBRANCH  24  33
ENDBRANCH   1  26
TORSDOF 3
ENDMDL
MODEL 2
REMARK VINA RESULT:      -6.8      2.664      3.932
REMARK  Name = ZINC000031809732
REMARK  3 active torsions:
REMARK  status: ('A' for Active; 'I' for Inactive)
REMARK    1  A    between atoms: C_1  and  C_26
REMARK    2  A    between atoms: C_24  and  O_33
REMARK    3  A    between atoms: C_29  and  O_30
REMARK                            x       y       z     vdW  Elec       q    Type
REMARK                         _______ _______ _______ _____ _____    ______ ____
ROOT
ATOM      1  C   UNL     1     -44.923 -17.184 -23.406  0.00  0.00    +0.000 C 
ATOM      2  S   UNL     1     -43.442 -17.521 -24.400  0.00  0.00    +0.000 S 
ATOM      3  C   UNL     1     -44.465 -17.525 -25.882  0.00  0.00    +0.000 C 
ATOM      4  C   UNL     1     -44.411 -16.182 -26.505  0.00  0.00    +0.000 C 
ATOM      5  O   UNL     1     -43.983 -16.082 -27.684  0.00  0.00    +0.000 OA
ATOM      6  N   UNL     1     -44.836 -14.998 -25.821  0.00  0.00    +0.000 N 
ATOM      7  C   UNL     1     -45.322 -14.815 -24.480  0.00  0.00    +0.000 A 
ATOM      8  C   UNL     1     -45.300 -15.713 -23.405  0.00  0.00    +0.000 A 
ATOM      9  C   UNL     1     -45.840 -14.962 -22.355  0.00  0.00    +0.000 A 
ATOM     10  C   UNL     1     -46.153 -15.419 -20.972  0.00  0.00    +0.000 C 
ATOM     11  N   UNL     1     -46.115 -13.712 -22.767  0.00  0.00    +0.000 NA
ATOM     12  N   UNL     1     -45.807 -13.630 -24.048  0.00  0.00    +0.000 N 
ATOM     13  H   UNL     1     -44.789 -14.174 -26.358  0.00  0.00    +0.000 HD
ATOM     14  C   UNL     1     -45.959 -12.418 -24.802  0.00  0.00    +0.000 A 
ATOM     15  N   UNL     1     -45.747 -11.209 -24.202  0.00  0.00    +0.000 NA
ATOM     16  C   UNL     1     -45.912 -10.031 -24.884  0.00  0.00    +0.000 A 
ATOM     17  N   UNL     1     -46.312 -10.037 -26.191  0.00  0.00    +0.000 NA
ATOM     18  C   UNL     1     -46.536 -11.234 -26.784  0.00  0.00    +0.000 A 
ATOM     19  N   UNL     1     -46.985 -11.438 -28.028  0.00  0.00    +0.000 N 
ATOM     20  C   UNL     1     -47.092 -12.793 -28.084  0.00  0.00    +0.000 A 
ATOM     21  N   UNL     1     -46.735 -13.423 -26.929  0.00  0.00    +0.000 NA
ATOM     22  C   UNL     1     -46.379 -12.406 -26.132  0.00  0.00    +0.000 A 
ATOM     23  H   UNL     1     -47.185 -10.774 -28.726  0.00  0.00    +0.000 HD
ENDROOT
BRANCH   1  26
ATOM     24  C   UNL     1     -43.420 -18.275 -20.070  0.00  0.00    +0.000 A 
ATOM     25  C   UNL     1     -43.555 -17.692 -21.340  0.00  0.00    +0.000 A 
ATOM     26  C   UNL     1     -44.761 -17.801 -22.050  0.00  0.00    +0.000 A 
ATOM     27  C   UNL     1     -45.831 -18.501 -21.487  0.00  0.00    +0.000 A 
ATOM     28  C   UNL     1     -45.703 -19.085 -20.224  0.00  0.00    +0.000 A 
ATOM     29  C   UNL     1     -44.503 -18.972 -19.516  0.00  0.00    +0.000 A 
BRANCH  29  30
ATOM     30  O   UNL     1     -44.392 -19.558 -18.261  0.00  0.00    +0.000 OA
ATOM     31  H   UNL     1     -43.830 -19.176 -17.615  0.00  0.00    +0.000 HD
ENDBRANCH  29  30
BRANCH  24  33
ATOM     32  C   UNL     1     -41.114 -19.025 -19.578  0.00  0.00    +0.000 C 
ATOM     33  O   UNL     1     -42.227 -18.174 -19.347  0.00  0.00    +0.000 OA
ENDBRANCH  24  33
ENDBRANCH   1  26
TORSDOF 3
ENDMDL
MODEL 3
REMARK VINA RESULT:      -6.7      9.702     13.138
REMARK  Name = ZINC000031809732
REMARK  3 active torsions:
REMARK  status: ('A' for Active; 'I' for Inactive)
REMARK    1  A    between atoms: C_1  and  C_26
REMARK    2  A    between atoms: C_24  and  O_33
REMARK    3  A    between atoms: C_29  and  O_30
REMARK                            x       y       z     vdW  Elec       q    Type
REMARK                         _______ _______ _______ _____ _____    ______ ____
ROOT
ATOM      1  C   UNL     1     -46.330  -6.184 -29.086  0.00  0.00    +0.000 C 
ATOM      2  S   UNL     1     -47.468  -6.582 -30.442  0.00  0.00    +0.000 S 
ATOM      3  C   UNL     1     -47.703  -4.821 -30.733  0.00  0.00    +0.000 C 
ATOM      4  C   UNL     1     -46.784  -4.386 -31.811  0.00  0.00    +0.000 C 
ATOM      5  O   UNL     1     -47.277  -3.880 -32.853  0.00  0.00    +0.000 OA
ATOM      6  N   UNL     1     -45.363  -4.510 -31.709  0.00  0.00    +0.000 N 
ATOM      7  C   UNL     1     -44.544  -5.077 -30.670  0.00  0.00    +0.000 A 
ATOM      8  C   UNL     1     -44.929  -5.863 -29.576  0.00  0.00    +0.000 A 
ATOM      9  C   UNL     1     -43.709  -6.171 -28.964  0.00  0.00    +0.000 A 
ATOM     10  C   UNL     1     -43.488  -6.912 -27.691  0.00  0.00    +0.000 C 
ATOM     11  N   UNL     1     -42.688  -5.647 -29.664  0.00  0.00    +0.000 NA
ATOM     12  N   UNL     1     -43.197  -4.984 -30.687  0.00  0.00    +0.000 N 
ATOM     13  H   UNL     1     -44.861  -4.147 -32.475  0.00  0.00    +0.000 HD
ATOM     14  C   UNL     1     -42.377  -4.315 -31.657  0.00  0.00    +0.000 A 
ATOM     15  N   UNL     1     -41.166  -4.842 -32.009  0.00  0.00    +0.000 NA
ATOM     16  C   UNL     1     -40.345  -4.213 -32.909  0.00  0.00    +0.000 A 
ATOM     17  N   UNL     1     -40.714  -3.023 -33.471  0.00  0.00    +0.000 NA
ATOM     18  C   UNL     1     -41.907  -2.492 -33.113  0.00  0.00    +0.000 A 
ATOM     19  N   UNL     1     -42.409  -1.316 -33.509  0.00  0.00    +0.000 N 
ATOM     20  C   UNL     1     -43.576  -1.245 -32.813  0.00  0.00    +0.000 A 
ATOM     21  N   UNL     1     -43.803  -2.320 -32.007  0.00  0.00    +0.000 NA
ATOM     22  C   UNL     1     -42.732  -3.094 -32.230  0.00  0.00    +0.000 A 
ATOM     23  H   UNL     1     -42.030  -0.668 -34.145  0.00  0.00    +0.000 HD
ENDROOT
BRANCH   1  26
ATOM     24  C   UNL     1     -46.460  -9.607 -27.400  0.00  0.00    +0.000 A 
ATOM     25  C   UNL     1     -46.386  -8.615 -28.391  0.00  0.00    +0.000 A 
ATOM     26  C   UNL     1     -46.409  -7.256 -28.041  0.00  0.00    +0.000 A 
ATOM     27  C   UNL     1     -46.512  -6.892 -26.696  0.00  0.00    +0.000 A 
ATOM     28  C   UNL     1     -46.588  -7.874 -25.705  0.00  0.00    +0.000 A 
ATOM     29  C   UNL     1     -46.560  -9.227 -26.054  0.00  0.00    +0.000 A 
BRANCH  29  30
ATOM     30  O   UNL     1     -46.635 -10.192 -25.057  0.00  0.00    +0.000 OA
ATOM     31  H   UNL     1     -47.452 -10.361 -24.629  0.00  0.00    +0.000 HD
ENDBRANCH  29  30
BRANCH  24  33
ATOM     32  C   UNL     1     -46.664 -11.443 -29.048  0.00  0.00    +0.000 C 
ATOM     33  O   UNL     1     -46.435 -10.967 -27.729  0.00  0.00    +0.000 OA
ENDBRANCH  24  33
ENDBRANCH   1  26
TORSDOF 3
ENDMDL
