MODEL 1
REMARK VINA RESULT:      -7.0      0.000      0.000
REMARK  Name = ZINC000031809031
REMARK  1 active torsions:
REMARK  status: ('A' for Active; 'I' for Inactive)
REMARK    1  A    between atoms: C_7  and  C_24
REMARK                            x       y       z     vdW  Elec       q    Type
REMARK                         _______ _______ _______ _____ _____    ______ ____
ROOT
ATOM      1  C   UNL     1     -47.438  -4.476 -26.213  0.00  0.00    +0.000 C 
ATOM      2  C   UNL     1     -46.964  -4.731 -27.603  0.00  0.00    +0.000 A 
ATOM      3  N   UNL     1     -46.820  -3.763 -28.525  0.00  0.00    +0.000 NA
ATOM      4  N   UNL     1     -46.384  -4.332 -29.637  0.00  0.00    +0.000 N 
ATOM      5  C   UNL     1     -46.212  -5.659 -29.436  0.00  0.00    +0.000 A 
ATOM      6  C   UNL     1     -46.598  -5.958 -28.130  0.00  0.00    +0.000 A 
ATOM      7  C   UNL     1     -46.591  -7.245 -27.353  0.00  0.00    +0.000 C 
ATOM      8  S   UNL     1     -46.851  -8.752 -28.341  0.00  0.00    +0.000 S 
ATOM      9  C   UNL     1     -45.214  -8.655 -29.102  0.00  0.00    +0.000 C 
ATOM     10  C   UNL     1     -45.294  -7.907 -30.380  0.00  0.00    +0.000 C 
ATOM     11  O   UNL     1     -44.975  -8.500 -31.441  0.00  0.00    +0.000 OA
ATOM     12  N   UNL     1     -45.681  -6.531 -30.448  0.00  0.00    +0.000 N 
ATOM     13  H   UNL     1     -45.565  -6.114 -31.332  0.00  0.00    +0.000 HD
ATOM     14  C   UNL     1     -46.091  -3.582 -30.825  0.00  0.00    +0.000 A 
ATOM     15  N   UNL     1     -45.560  -2.325 -30.727  0.00  0.00    +0.000 NA
ATOM     16  C   UNL     1     -45.296  -1.569 -31.840  0.00  0.00    +0.000 A 
ATOM     17  N   UNL     1     -45.573  -2.054 -33.088  0.00  0.00    +0.000 NA
ATOM     18  C   UNL     1     -46.111  -3.292 -33.187  0.00  0.00    +0.000 A 
ATOM     19  N   UNL     1     -46.499  -3.907 -34.310  0.00  0.00    +0.000 N 
ATOM     20  C   UNL     1     -47.019  -5.074 -33.842  0.00  0.00    +0.000 A 
ATOM     21  N   UNL     1     -46.968  -5.196 -32.486  0.00  0.00    +0.000 NA
ATOM     22  C   UNL     1     -46.378  -4.055 -32.105  0.00  0.00    +0.000 A 
ATOM     23  H   UNL     1     -46.427  -3.593 -35.240  0.00  0.00    +0.000 HD
ENDROOT
BRANCH   7  24
ATOM     24  C   UNL     1     -45.482  -7.354 -26.338  0.00  0.00    +0.000 A 
ATOM     25  C   UNL     1     -44.164  -7.014 -26.685  0.00  0.00    +0.000 A 
ATOM     26  C   UNL     1     -43.136  -7.110 -25.745  0.00  0.00    +0.000 A 
ATOM     27  C   UNL     1     -43.417  -7.545 -24.448  0.00  0.00    +0.000 A 
ATOM     28  F   UNL     1     -42.420  -7.640 -23.535  0.00  0.00    +0.000 F 
ATOM     29  C   UNL     1     -44.725  -7.883 -24.092  0.00  0.00    +0.000 A 
ATOM     30  C   UNL     1     -45.758  -7.790 -25.028  0.00  0.00    +0.000 A 
ATOM     31 CL   UNL     1     -47.386  -8.217 -24.524  0.00  0.00    +0.000 Cl
ENDBRANCH   7  24
TORSDOF 1
ENDMDL
MODEL 2
REMARK VINA RESULT:      -6.9      5.341      7.307
REMARK  Name = ZINC000031809031
REMARK  1 active torsions:
REMARK  status: ('A' for Active; 'I' for Inactive)
REMARK    1  A    between atoms: C_7  and  C_24
REMARK                            x       y       z     vdW  Elec       q    Type
REMARK                         _______ _______ _______ _____ _____    ______ ____
ROOT
ATOM      1  C   UNL     1     -47.206  -3.382 -33.708  0.00  0.00    +0.000 C 
ATOM      2  C   UNL     1     -46.533  -4.709 -33.798  0.00  0.00    +0.000 A 
ATOM      3  N   UNL     1     -46.844  -5.635 -34.721  0.00  0.00    +0.000 NA
ATOM      4  N   UNL     1     -46.060  -6.681 -34.517  0.00  0.00    +0.000 N 
ATOM      5  C   UNL     1     -45.219  -6.430 -33.487  0.00  0.00    +0.000 A 
ATOM      6  C   UNL     1     -45.511  -5.164 -32.982  0.00  0.00    +0.000 A 
ATOM      7  C   UNL     1     -44.887  -4.358 -31.876  0.00  0.00    +0.000 C 
ATOM      8  S   UNL     1     -44.191  -5.329 -30.503  0.00  0.00    +0.000 S 
ATOM      9  C   UNL     1     -42.800  -5.919 -31.495  0.00  0.00    +0.000 C 
ATOM     10  C   UNL     1     -43.142  -7.217 -32.125  0.00  0.00    +0.000 C 
ATOM     11  O   UNL     1     -42.448  -8.225 -31.835  0.00  0.00    +0.000 OA
ATOM     12  N   UNL     1     -44.202  -7.359 -33.076  0.00  0.00    +0.000 N 
ATOM     13  H   UNL     1     -44.242  -8.237 -33.520  0.00  0.00    +0.000 HD
ATOM     14  C   UNL     1     -46.101  -7.851 -35.348  0.00  0.00    +0.000 A 
ATOM     15  N   UNL     1     -46.347  -7.730 -36.688  0.00  0.00    +0.000 NA
ATOM     16  C   UNL     1     -46.422  -8.829 -37.504  0.00  0.00    +0.000 A 
ATOM     17  N   UNL     1     -46.266 -10.087 -36.991  0.00  0.00    +0.000 NA
ATOM     18  C   UNL     1     -46.036 -10.209 -35.662  0.00  0.00    +0.000 A 
ATOM     19  N   UNL     1     -45.916 -11.351 -34.975  0.00  0.00    +0.000 N 
ATOM     20  C   UNL     1     -45.766 -10.909 -33.696  0.00  0.00    +0.000 A 
ATOM     21  N   UNL     1     -45.795  -9.552 -33.574  0.00  0.00    +0.000 NA
ATOM     22  C   UNL     1     -45.956  -9.142 -34.839  0.00  0.00    +0.000 A 
ATOM     23  H   UNL     1     -45.932 -12.276 -35.309  0.00  0.00    +0.000 HD
ENDROOT
BRANCH   7  24
ATOM     24  C   UNL     1     -44.005  -3.232 -32.348  0.00  0.00    +0.000 A 
ATOM     25  C   UNL     1     -42.953  -3.480 -33.245  0.00  0.00    +0.000 A 
ATOM     26  C   UNL     1     -42.136  -2.437 -33.687  0.00  0.00    +0.000 A 
ATOM     27  C   UNL     1     -42.365  -1.134 -33.237  0.00  0.00    +0.000 A 
ATOM     28  F   UNL     1     -41.573  -0.122 -33.664  0.00  0.00    +0.000 F 
ATOM     29  C   UNL     1     -43.410  -0.877 -32.347  0.00  0.00    +0.000 A 
ATOM     30  C   UNL     1     -44.231  -1.916 -31.900  0.00  0.00    +0.000 A 
ATOM     31 CL   UNL     1     -45.537  -1.533 -30.789  0.00  0.00    +0.000 Cl
ENDBRANCH   7  24
TORSDOF 1
ENDMDL
MODEL 3
REMARK VINA RESULT:      -6.7      3.187      4.183
REMARK  Name = ZINC000031809031
REMARK  1 active torsions:
REMARK  status: ('A' for Active; 'I' for Inactive)
REMARK    1  A    between atoms: C_7  and  C_24
REMARK                            x       y       z     vdW  Elec       q    Type
REMARK                         _______ _______ _______ _____ _____    ______ ____
ROOT
ATOM      1  C   UNL     1     -42.634  -6.770 -27.479  0.00  0.00    +0.000 C 
ATOM      2  C   UNL     1     -43.101  -6.097 -28.725  0.00  0.00    +0.000 A 
ATOM      3  N   UNL     1     -42.275  -5.726 -29.719  0.00  0.00    +0.000 NA
ATOM      4  N   UNL     1     -43.014  -5.166 -30.663  0.00  0.00    +0.000 N 
ATOM      5  C   UNL     1     -44.318  -5.199 -30.305  0.00  0.00    +0.000 A 
ATOM      6  C   UNL     1     -44.411  -5.780 -29.041  0.00  0.00    +0.000 A 
ATOM      7  C   UNL     1     -45.594  -6.102 -28.171  0.00  0.00    +0.000 C 
ATOM      8  S   UNL     1     -47.016  -4.979 -28.343  0.00  0.00    +0.000 S 
ATOM      9  C   UNL     1     -47.449  -5.618 -29.978  0.00  0.00    +0.000 C 
ATOM     10  C   UNL     1     -46.790  -4.806 -31.029  0.00  0.00    +0.000 C 
ATOM     11  O   UNL     1     -47.514  -4.194 -31.855  0.00  0.00    +0.000 OA
ATOM     12  N   UNL     1     -45.368  -4.723 -31.164  0.00  0.00    +0.000 N 
ATOM     13  H   UNL     1     -45.058  -4.264 -31.978  0.00  0.00    +0.000 HD
ATOM     14  C   UNL     1     -42.456  -4.679 -31.892  0.00  0.00    +0.000 A 
ATOM     15  N   UNL     1     -41.407  -5.334 -32.475  0.00  0.00    +0.000 NA
ATOM     16  C   UNL     1     -40.831  -4.878 -33.633  0.00  0.00    +0.000 A 
ATOM     17  N   UNL     1     -41.289  -3.738 -34.233  0.00  0.00    +0.000 NA
ATOM     18  C   UNL     1     -42.319  -3.081 -33.651  0.00  0.00    +0.000 A 
ATOM     19  N   UNL     1     -42.860  -1.926 -34.056  0.00  0.00    +0.000 N 
ATOM     20  C   UNL     1     -43.793  -1.686 -33.095  0.00  0.00    +0.000 A 
ATOM     21  N   UNL     1     -43.841  -2.638 -32.122  0.00  0.00    +0.000 NA
ATOM     22  C   UNL     1     -42.902  -3.511 -32.512  0.00  0.00    +0.000 A 
ATOM     23  H   UNL     1     -42.639  -1.387 -34.849  0.00  0.00    +0.000 HD
ENDROOT
BRANCH   7  24
ATOM     24  C   UNL     1     -45.960  -7.563 -28.133  0.00  0.00    +0.000 A 
ATOM     25  C   UNL     1     -45.804  -8.365 -29.276  0.00  0.00    +0.000 A 
ATOM     26  C   UNL     1     -46.138  -9.720 -29.243  0.00  0.00    +0.000 A 
ATOM     27  C   UNL     1     -46.631 -10.288 -28.065  0.00  0.00    +0.000 A 
ATOM     28  F   UNL     1     -46.957 -11.602 -28.032  0.00  0.00    +0.000 F 
ATOM     29  C   UNL     1     -46.788  -9.500 -26.923  0.00  0.00    +0.000 A 
ATOM     30  C   UNL     1     -46.455  -8.143 -26.950  0.00  0.00    +0.000 A 
ATOM     31 CL   UNL     1     -46.663  -7.200 -25.481  0.00  0.00    +0.000 Cl
ENDBRANCH   7  24
TORSDOF 1
ENDMDL
