MODEL 1
REMARK VINA RESULT:      -6.2      0.000      0.000
REMARK  Name = ZINC000001703511 PubChem-92161731
REMARK  9 active torsions:
REMARK  status: ('A' for Active; 'I' for Inactive)
REMARK    1  A    between atoms: N_17  and  C_20
REMARK    2  A    between atoms: C_20  and  C_21
REMARK    3  A    between atoms: C_21  and  O_22
REMARK    4  A    between atoms: C_21  and  C_24
REMARK    5  A    between atoms: C_24  and  O_25
REMARK    6  A    between atoms: C_24  and  C_27
REMARK    7  A    between atoms: C_27  and  O_28
REMARK    8  A    between atoms: C_27  and  C_30
REMARK    9  A    between atoms: C_30  and  O_31
REMARK                            x       y       z     vdW  Elec       q    Type
REMARK                         _______ _______ _______ _____ _____    ______ ____
ROOT
ATOM      1  C   UNL     1     -46.901 -12.581 -19.439  0.00  0.00    +0.000 C 
ATOM      2  C   UNL     1     -46.532 -13.913 -20.000  0.00  0.00    +0.000 A 
ATOM      3  C   UNL     1     -46.375 -15.039 -19.174  0.00  0.00    +0.000 A 
ATOM      4  C   UNL     1     -46.029 -16.270 -19.737  0.00  0.00    +0.000 A 
ATOM      5  C   UNL     1     -45.832 -16.405 -21.122  0.00  0.00    +0.000 A 
ATOM      6  C   UNL     1     -45.996 -15.259 -21.945  0.00  0.00    +0.000 A 
ATOM      7  C   UNL     1     -46.342 -14.031 -21.378  0.00  0.00    +0.000 A 
ATOM      8  C   UNL     1     -45.815 -15.344 -23.322  0.00  0.00    +0.000 A 
ATOM      9  C   UNL     1     -45.473 -16.563 -23.896  0.00  0.00    +0.000 A 
ATOM     10  C   UNL     1     -45.276 -16.735 -25.267  0.00  0.00    +0.000 A 
ATOM     11  O   UNL     1     -45.400 -15.767 -26.064  0.00  0.00    +0.000 OA
ATOM     12  N   UNL     1     -44.945 -17.962 -25.747  0.00  0.00    +0.000 N 
ATOM     13  C   UNL     1     -44.798 -19.044 -24.933  0.00  0.00    +0.000 A 
ATOM     14  O   UNL     1     -44.491 -20.159 -25.428  0.00  0.00    +0.000 OA
ATOM     15  N   UNL     1     -44.978 -18.931 -23.590  0.00  0.00    +0.000 NA
ATOM     16  C   UNL     1     -45.308 -17.741 -23.022  0.00  0.00    +0.000 A 
ATOM     17  N   UNL     1     -45.489 -17.620 -21.672  0.00  0.00    +0.000 N 
ATOM     18  C   UNL     1     -46.570 -14.957 -17.698  0.00  0.00    +0.000 C 
ATOM     19  H   UNL     1     -44.808 -18.074 -26.716  0.00  0.00    +0.000 HD
ENDROOT
BRANCH  17  20
ATOM     20  C   UNL     1     -45.304 -18.798 -20.818  0.00  0.00    +0.000 C 
BRANCH  20  21
ATOM     21  C   UNL     1     -43.829 -18.993 -20.483  0.00  0.00    +0.000 C 
BRANCH  21  22
ATOM     22  O   UNL     1     -43.353 -20.127 -21.144  0.00  0.00    +0.000 OA
ATOM     23  H   UNL     1     -42.384 -20.106 -21.165  0.00  0.00    +0.000 HD
ENDBRANCH  21  22
BRANCH  21  24
ATOM     24  C   UNL     1     -43.638 -19.136 -18.968  0.00  0.00    +0.000 C 
BRANCH  24  25
ATOM     25  O   UNL     1     -43.094 -17.962 -18.442  0.00  0.00    +0.000 OA
ATOM     26  H   UNL     1     -43.744 -17.245 -18.511  0.00  0.00    +0.000 HD
ENDBRANCH  24  25
BRANCH  24  27
ATOM     27  C   UNL     1     -42.738 -20.312 -18.580  0.00  0.00    +0.000 C 
BRANCH  27  28
ATOM     28  O   UNL     1     -43.497 -21.434 -18.234  0.00  0.00    +0.000 OA
ATOM     29  H   UNL     1     -44.437 -21.195 -18.210  0.00  0.00    +0.000 HD
ENDBRANCH  27  28
BRANCH  27  30
ATOM     30  C   UNL     1     -41.791 -19.941 -17.451  0.00  0.00    +0.000 C 
BRANCH  30  31
ATOM     31  O   UNL     1     -42.519 -19.665 -16.293  0.00  0.00    +0.000 OA
ATOM     32  H   UNL     1     -42.718 -18.716 -16.254  0.00  0.00    +0.000 HD
ENDBRANCH  30  31
ENDBRANCH  27  30
ENDBRANCH  24  27
ENDBRANCH  21  24
ENDBRANCH  20  21
ENDBRANCH  17  20
TORSDOF 9
ENDMDL
MODEL 2
REMARK VINA RESULT:      -6.2      3.787      6.675
REMARK  Name = ZINC000001703511 PubChem-92161731
REMARK  9 active torsions:
REMARK  status: ('A' for Active; 'I' for Inactive)
REMARK    1  A    between atoms: N_17  and  C_20
REMARK    2  A    between atoms: C_20  and  C_21
REMARK    3  A    between atoms: C_21  and  O_22
REMARK    4  A    between atoms: C_21  and  C_24
REMARK    5  A    between atoms: C_24  and  O_25
REMARK    6  A    between atoms: C_24  and  C_27
REMARK    7  A    between atoms: C_27  and  O_28
REMARK    8  A    between atoms: C_27  and  C_30
REMARK    9  A    between atoms: C_30  and  O_31
REMARK                            x       y       z     vdW  Elec       q    Type
REMARK                         _______ _______ _______ _____ _____    ______ ____
ROOT
ATOM      1  C   UNL     1     -46.433 -19.066 -19.382  0.00  0.00    +0.000 C 
ATOM      2  C   UNL     1     -45.971 -18.234 -20.530  0.00  0.00    +0.000 A 
ATOM      3  C   UNL     1     -45.883 -16.835 -20.435  0.00  0.00    +0.000 A 
ATOM      4  C   UNL     1     -45.446 -16.090 -21.533  0.00  0.00    +0.000 A 
ATOM      5  C   UNL     1     -45.091 -16.716 -22.741  0.00  0.00    +0.000 A 
ATOM      6  C   UNL     1     -45.183 -18.131 -22.822  0.00  0.00    +0.000 A 
ATOM      7  C   UNL     1     -45.620 -18.872 -21.723  0.00  0.00    +0.000 A 
ATOM      8  C   UNL     1     -44.840 -18.796 -23.995  0.00  0.00    +0.000 A 
ATOM      9  C   UNL     1     -44.401 -18.068 -25.095  0.00  0.00    +0.000 A 
ATOM     10  C   UNL     1     -44.034 -18.657 -26.307  0.00  0.00    +0.000 A 
ATOM     11  O   UNL     1     -44.089 -19.906 -26.460  0.00  0.00    +0.000 OA
ATOM     12  N   UNL     1     -43.614 -17.872 -27.332  0.00  0.00    +0.000 N 
ATOM     13  C   UNL     1     -43.533 -16.516 -27.222  0.00  0.00    +0.000 A 
ATOM     14  O   UNL     1     -43.137 -15.835 -28.203  0.00  0.00    +0.000 OA
ATOM     15  N   UNL     1     -43.879 -15.893 -26.065  0.00  0.00    +0.000 NA
ATOM     16  C   UNL     1     -44.313 -16.599 -24.987  0.00  0.00    +0.000 A 
ATOM     17  N   UNL     1     -44.664 -15.977 -23.821  0.00  0.00    +0.000 N 
ATOM     18  C   UNL     1     -46.247 -16.114 -19.181  0.00  0.00    +0.000 C 
ATOM     19  H   UNL     1     -43.357 -18.296 -28.183  0.00  0.00    +0.000 HD
ENDROOT
BRANCH  17  20
ATOM     20  C   UNL     1     -44.586 -14.516 -23.739  0.00  0.00    +0.000 C 
BRANCH  20  21
ATOM     21  C   UNL     1     -45.882 -13.880 -24.231  0.00  0.00    +0.000 C 
BRANCH  21  22
ATOM     22  O   UNL     1     -46.645 -14.843 -24.893  0.00  0.00    +0.000 OA
ATOM     23  H   UNL     1     -46.619 -15.674 -24.394  0.00  0.00    +0.000 HD
ENDBRANCH  21  22
BRANCH  21  24
ATOM     24  C   UNL     1     -45.580 -12.702 -25.165  0.00  0.00    +0.000 C 
BRANCH  24  25
ATOM     25  O   UNL     1     -46.173 -11.537 -24.672  0.00  0.00    +0.000 OA
ATOM     26  H   UNL     1     -45.483 -10.917 -24.388  0.00  0.00    +0.000 HD
ENDBRANCH  24  25
BRANCH  24  27
ATOM     27  C   UNL     1     -46.061 -12.928 -26.600  0.00  0.00    +0.000 C 
BRANCH  27  28
ATOM     28  O   UNL     1     -45.090 -13.589 -27.358  0.00  0.00    +0.000 OA
ATOM     29  H   UNL     1     -45.377 -14.500 -27.528  0.00  0.00    +0.000 HD
ENDBRANCH  27  28
BRANCH  27  30
ATOM     30  C   UNL     1     -46.460 -11.623 -27.268  0.00  0.00    +0.000 C 
BRANCH  30  31
ATOM     31  O   UNL     1     -47.751 -11.266 -26.877  0.00  0.00    +0.000 OA
ATOM     32  H   UNL     1     -47.754 -11.046 -25.932  0.00  0.00    +0.000 HD
ENDBRANCH  30  31
ENDBRANCH  27  30
ENDBRANCH  24  27
ENDBRANCH  21  24
ENDBRANCH  20  21
ENDBRANCH  17  20
TORSDOF 9
ENDMDL
MODEL 3
REMARK VINA RESULT:      -6.1     13.841     17.867
REMARK  Name = ZINC000001703511 PubChem-92161731
REMARK  9 active torsions:
REMARK  status: ('A' for Active; 'I' for Inactive)
REMARK    1  A    between atoms: N_17  and  C_20
REMARK    2  A    between atoms: C_20  and  C_21
REMARK    3  A    between atoms: C_21  and  O_22
REMARK    4  A    between atoms: C_21  and  C_24
REMARK    5  A    between atoms: C_24  and  O_25
REMARK    6  A    between atoms: C_24  and  C_27
REMARK    7  A    between atoms: C_27  and  O_28
REMARK    8  A    between atoms: C_27  and  C_30
REMARK    9  A    between atoms: C_30  and  O_31
REMARK                            x       y       z     vdW  Elec       q    Type
REMARK                         _______ _______ _______ _____ _____    ______ ____
ROOT
ATOM      1  C   UNL     1     -45.914  -9.939 -36.289  0.00  0.00    +0.000 C 
ATOM      2  C   UNL     1     -46.091  -8.743 -35.416  0.00  0.00    +0.000 A 
ATOM      3  C   UNL     1     -45.970  -7.438 -35.925  0.00  0.00    +0.000 A 
ATOM      4  C   UNL     1     -46.143  -6.343 -35.075  0.00  0.00    +0.000 A 
ATOM      5  C   UNL     1     -46.437  -6.521 -33.712  0.00  0.00    +0.000 A 
ATOM      6  C   UNL     1     -46.559  -7.845 -33.212  0.00  0.00    +0.000 A 
ATOM      7  C   UNL     1     -46.385  -8.937 -34.064  0.00  0.00    +0.000 A 
ATOM      8  C   UNL     1     -46.852  -8.071 -31.871  0.00  0.00    +0.000 A 
ATOM      9  C   UNL     1     -47.030  -6.991 -31.014  0.00  0.00    +0.000 A 
ATOM     10  C   UNL     1     -47.328  -7.130 -29.657  0.00  0.00    +0.000 A 
ATOM     11  O   UNL     1     -47.451  -8.271 -29.137  0.00  0.00    +0.000 OA
ATOM     12  N   UNL     1     -47.488  -6.021 -28.890  0.00  0.00    +0.000 N 
ATOM     13  C   UNL     1     -47.368  -4.763 -29.399  0.00  0.00    +0.000 A 
ATOM     14  O   UNL     1     -47.527  -3.768 -28.645  0.00  0.00    +0.000 OA
ATOM     15  N   UNL     1     -47.078  -4.572 -30.713  0.00  0.00    +0.000 NA
ATOM     16  C   UNL     1     -46.899  -5.624 -31.555  0.00  0.00    +0.000 A 
ATOM     17  N   UNL     1     -46.605  -5.438 -32.878  0.00  0.00    +0.000 N 
ATOM     18  C   UNL     1     -45.659  -7.186 -37.361  0.00  0.00    +0.000 C 
ATOM     19  H   UNL     1     -47.699  -6.129 -27.934  0.00  0.00    +0.000 HD
ENDROOT
BRANCH  17  20
ATOM     20  C   UNL     1     -46.462  -4.073 -33.393  0.00  0.00    +0.000 C 
BRANCH  20  21
ATOM     21  C   UNL     1     -45.009  -3.616 -33.310  0.00  0.00    +0.000 C 
BRANCH  21  22
ATOM     22  O   UNL     1     -44.392  -4.238 -32.223  0.00  0.00    +0.000 OA
ATOM     23  H   UNL     1     -45.016  -4.850 -31.804  0.00  0.00    +0.000 HD
ENDBRANCH  21  22
BRANCH  21  24
ATOM     24  C   UNL     1     -44.934  -2.091 -33.169  0.00  0.00    +0.000 C 
BRANCH  24  25
ATOM     25  O   UNL     1     -44.325  -1.536 -34.297  0.00  0.00    +0.000 OA
ATOM     26  H   UNL     1     -43.754  -2.199 -34.716  0.00  0.00    +0.000 HD
ENDBRANCH  24  25
BRANCH  24  27
ATOM     27  C   UNL     1     -44.170  -1.635 -31.924  0.00  0.00    +0.000 C 
BRANCH  27  28
ATOM     28  O   UNL     1     -44.810  -0.555 -31.308  0.00  0.00    +0.000 OA
ATOM     29  H   UNL     1     -45.000   0.129 -31.969  0.00  0.00    +0.000 HD
ENDBRANCH  27  28
BRANCH  27  30
ATOM     30  C   UNL     1     -42.728  -1.284 -32.251  0.00  0.00    +0.000 C 
BRANCH  30  31
ATOM     31  O   UNL     1     -41.905  -2.384 -32.005  0.00  0.00    +0.000 OA
ATOM     32  H   UNL     1     -41.904  -2.967 -32.780  0.00  0.00    +0.000 HD
ENDBRANCH  30  31
ENDBRANCH  27  30
ENDBRANCH  24  27
ENDBRANCH  21  24
ENDBRANCH  20  21
ENDBRANCH  17  20
TORSDOF 9
ENDMDL
