MODEL 1
REMARK VINA RESULT:      -7.5      0.000      0.000
REMARK  Name = ZINC000064605344 ZINC64605344 ChemDiv-J046-1135 MCULE-1856858286 MolPort-010-723-805 PubChem-50813209
REMARK  7 active torsions:
REMARK  status: ('A' for Active; 'I' for Inactive)
REMARK    1  A    between atoms: N_1  and  C_22
REMARK    2  A    between atoms: C_3  and  C_8
REMARK    3  A    between atoms: C_5  and  N_15
REMARK    4  A    between atoms: C_16  and  C_19
REMARK    5  A    between atoms: C_22  and  C_24
REMARK    6  A    between atoms: N_23  and  C_28
REMARK    7  A    between atoms: C_27  and  O_35
REMARK                            x       y       z     vdW  Elec       q    Type
REMARK                         _______ _______ _______ _____ _____    ______ ____
ROOT
ATOM      1  N   UNL     1     -47.299  -6.399 -30.189  0.00  0.00    +0.000 N 
ATOM      2  N   UNL     1     -47.371  -5.989 -28.920  0.00  0.00    +0.000 NA
ATOM      3  C   UNL     1     -46.988  -4.741 -28.539  0.00  0.00    +0.000 A 
ATOM      4  C   UNL     1     -46.499  -3.863 -29.507  0.00  0.00    +0.000 A 
ATOM      5  C   UNL     1     -46.411  -4.274 -30.838  0.00  0.00    +0.000 A 
ATOM      6  C   UNL     1     -46.822  -5.571 -31.168  0.00  0.00    +0.000 A 
ATOM      7  O   UNL     1     -46.748  -5.969 -32.363  0.00  0.00    +0.000 OA
ENDROOT
BRANCH   3   8
ATOM      8  C   UNL     1     -47.086  -4.335 -27.120  0.00  0.00    +0.000 A 
ATOM      9  C   UNL     1     -47.345  -2.995 -26.789  0.00  0.00    +0.000 A 
ATOM     10  C   UNL     1     -47.437  -2.600 -25.451  0.00  0.00    +0.000 A 
ATOM     11  C   UNL     1     -47.275  -3.543 -24.432  0.00  0.00    +0.000 A 
ATOM     12  C   UNL     1     -47.374  -3.123 -23.010  0.00  0.00    +0.000 C 
ATOM     13  C   UNL     1     -47.021  -4.879 -24.750  0.00  0.00    +0.000 A 
ATOM     14  C   UNL     1     -46.927  -5.273 -26.088  0.00  0.00    +0.000 A 
ENDBRANCH   3   8
BRANCH   5  15
ATOM     15  N   UNL     1     -45.905  -3.405 -31.864  0.00  0.00    +0.000 N 
ATOM     16  C   UNL     1     -44.527  -3.192 -32.208  0.00  0.00    +0.000 C 
ATOM     17  O   UNL     1     -43.602  -3.776 -31.584  0.00  0.00    +0.000 OA
ATOM     18  H   UNL     1     -46.573  -2.904 -32.387  0.00  0.00    +0.000 HD
BRANCH  16  19
ATOM     19  C   UNL     1     -44.172  -2.260 -33.320  0.00  0.00    +0.000 C 
ATOM     20  C   UNL     1     -42.858  -2.672 -33.954  0.00  0.00    +0.000 C 
ATOM     21  C   UNL     1     -44.074  -0.835 -32.810  0.00  0.00    +0.000 C 
ENDBRANCH  16  19
ENDBRANCH   5  15
BRANCH   1  22
ATOM     22  C   UNL     1     -47.692  -7.768 -30.498  0.00  0.00    +0.000 C 
BRANCH  22  24
ATOM     23  N   UNL     1     -47.751  -9.161 -28.393  0.00  0.00    +0.000 N 
ATOM     24  C   UNL     1     -47.034  -8.705 -29.546  0.00  0.00    +0.000 C 
ATOM     25  O   UNL     1     -45.851  -9.081 -29.760  0.00  0.00    +0.000 OA
ATOM     26  H   UNL     1     -48.733  -9.099 -28.414  0.00  0.00    +0.000 HD
BRANCH  23  28
ATOM     27  C   UNL     1     -46.821 -11.070 -27.097  0.00  0.00    +0.000 A 
ATOM     28  C   UNL     1     -47.146  -9.700 -27.213  0.00  0.00    +0.000 A 
ATOM     29  C   UNL     1     -46.811  -8.821 -26.177  0.00  0.00    +0.000 A 
ATOM     30  C   UNL     1     -46.206  -9.294 -25.011  0.00  0.00    +0.000 A 
ATOM     31  C   UNL     1     -45.872  -8.351 -23.912  0.00  0.00    +0.000 C 
ATOM     32  C   UNL     1     -45.919 -10.654 -24.876  0.00  0.00    +0.000 A 
ATOM     33  C   UNL     1     -46.221 -11.536 -25.915  0.00  0.00    +0.000 A 
BRANCH  27  35
ATOM     34  C   UNL     1     -46.355 -13.155 -28.355  0.00  0.00    +0.000 C 
ATOM     35  O   UNL     1     -47.070 -11.942 -28.163  0.00  0.00    +0.000 OA
ENDBRANCH  27  35
ENDBRANCH  23  28
ENDBRANCH  22  24
ENDBRANCH   1  22
TORSDOF 7
ENDMDL
MODEL 2
REMARK VINA RESULT:      -7.1      1.670      7.045
REMARK  Name = ZINC000064605344 ZINC64605344 ChemDiv-J046-1135 MCULE-1856858286 MolPort-010-723-805 PubChem-50813209
REMARK  7 active torsions:
REMARK  status: ('A' for Active; 'I' for Inactive)
REMARK    1  A    between atoms: N_1  and  C_22
REMARK    2  A    between atoms: C_3  and  C_8
REMARK    3  A    between atoms: C_5  and  N_15
REMARK    4  A    between atoms: C_16  and  C_19
REMARK    5  A    between atoms: C_22  and  C_24
REMARK    6  A    between atoms: N_23  and  C_28
REMARK    7  A    between atoms: C_27  and  O_35
REMARK                            x       y       z     vdW  Elec       q    Type
REMARK                         _______ _______ _______ _____ _____    ______ ____
ROOT
ATOM      1  N   UNL     1     -47.248  -5.475 -29.068  0.00  0.00    +0.000 N 
ATOM      2  N   UNL     1     -47.358  -4.638 -28.034  0.00  0.00    +0.000 NA
ATOM      3  C   UNL     1     -46.959  -4.978 -26.779  0.00  0.00    +0.000 A 
ATOM      4  C   UNL     1     -46.422  -6.249 -26.567  0.00  0.00    +0.000 A 
ATOM      5  C   UNL     1     -46.303  -7.141 -27.634  0.00  0.00    +0.000 A 
ATOM      6  C   UNL     1     -46.730  -6.730 -28.902  0.00  0.00    +0.000 A 
ATOM      7  O   UNL     1     -46.637  -7.519 -29.883  0.00  0.00    +0.000 OA
ENDROOT
BRANCH   3   8
ATOM      8  C   UNL     1     -47.104  -4.016 -25.666  0.00  0.00    +0.000 A 
ATOM      9  C   UNL     1     -47.272  -2.648 -25.937  0.00  0.00    +0.000 A 
ATOM     10  C   UNL     1     -47.407  -1.729 -24.892  0.00  0.00    +0.000 A 
ATOM     11  C   UNL     1     -47.379  -2.171 -23.566  0.00  0.00    +0.000 A 
ATOM     12  C   UNL     1     -47.524  -1.194 -22.455  0.00  0.00    +0.000 C 
ATOM     13  C   UNL     1     -47.216  -3.529 -23.285  0.00  0.00    +0.000 A 
ATOM     14  C   UNL     1     -47.078  -4.448 -24.330  0.00  0.00    +0.000 A 
ENDBRANCH   3   8
BRANCH   5  15
ATOM     15  N   UNL     1     -45.763  -8.461 -27.457  0.00  0.00    +0.000 N 
ATOM     16  C   UNL     1     -46.474  -9.628 -27.014  0.00  0.00    +0.000 C 
ATOM     17  O   UNL     1     -47.696  -9.571 -26.713  0.00  0.00    +0.000 OA
ATOM     18  H   UNL     1     -44.808  -8.578 -27.663  0.00  0.00    +0.000 HD
BRANCH  16  19
ATOM     19  C   UNL     1     -45.762 -10.935 -26.900  0.00  0.00    +0.000 C 
ATOM     20  C   UNL     1     -44.664 -11.030 -27.942  0.00  0.00    +0.000 C 
ATOM     21  C   UNL     1     -46.734 -12.088 -27.070  0.00  0.00    +0.000 C 
ENDBRANCH  16  19
ENDBRANCH   5  15
BRANCH   1  22
ATOM     22  C   UNL     1     -47.740  -5.039 -30.368  0.00  0.00    +0.000 C 
BRANCH  22  24
ATOM     23  N   UNL     1     -45.303  -4.461 -30.686  0.00  0.00    +0.000 N 
ATOM     24  C   UNL     1     -46.590  -4.719 -31.258  0.00  0.00    +0.000 C 
ATOM     25  O   UNL     1     -46.762  -4.672 -32.505  0.00  0.00    +0.000 OA
ATOM     26  H   UNL     1     -45.135  -4.793 -29.776  0.00  0.00    +0.000 HD
BRANCH  23  28
ATOM     27  C   UNL     1     -43.006  -4.370 -31.638  0.00  0.00    +0.000 A 
ATOM     28  C   UNL     1     -44.243  -3.755 -31.341  0.00  0.00    +0.000 A 
ATOM     29  C   UNL     1     -44.476  -2.437 -31.751  0.00  0.00    +0.000 A 
ATOM     30  C   UNL     1     -43.480  -1.710 -32.406  0.00  0.00    +0.000 A 
ATOM     31  C   UNL     1     -43.737  -0.306 -32.820  0.00  0.00    +0.000 C 
ATOM     32  C   UNL     1     -42.243  -2.301 -32.667  0.00  0.00    +0.000 A 
ATOM     33  C   UNL     1     -42.009  -3.624 -32.290  0.00  0.00    +0.000 A 
BRANCH  27  35
ATOM     34  C   UNL     1     -42.041  -6.127 -30.181  0.00  0.00    +0.000 C 
ATOM     35  O   UNL     1     -42.796  -5.714 -31.312  0.00  0.00    +0.000 OA
ENDBRANCH  27  35
ENDBRANCH  23  28
ENDBRANCH  22  24
ENDBRANCH   1  22
TORSDOF 7
ENDMDL
MODEL 3
REMARK VINA RESULT:      -6.9      2.005      7.296
REMARK  Name = ZINC000064605344 ZINC64605344 ChemDiv-J046-1135 MCULE-1856858286 MolPort-010-723-805 PubChem-50813209
REMARK  7 active torsions:
REMARK  status: ('A' for Active; 'I' for Inactive)
REMARK    1  A    between atoms: N_1  and  C_22
REMARK    2  A    between atoms: C_3  and  C_8
REMARK    3  A    between atoms: C_5  and  N_15
REMARK    4  A    between atoms: C_16  and  C_19
REMARK    5  A    between atoms: C_22  and  C_24
REMARK    6  A    between atoms: N_23  and  C_28
REMARK    7  A    between atoms: C_27  and  O_35
REMARK                            x       y       z     vdW  Elec       q    Type
REMARK                         _______ _______ _______ _____ _____    ______ ____
ROOT
ATOM      1  N   UNL     1     -47.226  -4.879 -29.435  0.00  0.00    +0.000 N 
ATOM      2  N   UNL     1     -47.304  -4.152 -28.319  0.00  0.00    +0.000 NA
ATOM      3  C   UNL     1     -47.065  -4.682 -27.089  0.00  0.00    +0.000 A 
ATOM      4  C   UNL     1     -46.731  -6.034 -26.995  0.00  0.00    +0.000 A 
ATOM      5  C   UNL     1     -46.648  -6.813 -28.150  0.00  0.00    +0.000 A 
ATOM      6  C   UNL     1     -46.905  -6.208 -29.386  0.00  0.00    +0.000 A 
ATOM      7  O   UNL     1     -46.842  -6.891 -30.445  0.00  0.00    +0.000 OA
ENDROOT
BRANCH   3   8
ATOM      8  C   UNL     1     -47.166  -3.835 -25.882  0.00  0.00    +0.000 A 
ATOM      9  C   UNL     1     -47.291  -2.442 -26.009  0.00  0.00    +0.000 A 
ATOM     10  C   UNL     1     -47.385  -1.631 -24.874  0.00  0.00    +0.000 A 
ATOM     11  C   UNL     1     -47.359  -2.207 -23.600  0.00  0.00    +0.000 A 
ATOM     12  C   UNL     1     -47.461  -1.346 -22.394  0.00  0.00    +0.000 C 
ATOM     13  C   UNL     1     -47.239  -3.592 -23.462  0.00  0.00    +0.000 A 
ATOM     14  C   UNL     1     -47.142  -4.402 -24.597  0.00  0.00    +0.000 A 
ENDBRANCH   3   8
BRANCH   5  15
ATOM     15  N   UNL     1     -46.316  -8.209 -28.096  0.00  0.00    +0.000 N 
ATOM     16  C   UNL     1     -45.001  -8.784 -28.160  0.00  0.00    +0.000 C 
ATOM     17  O   UNL     1     -43.979  -8.059 -28.294  0.00  0.00    +0.000 OA
ATOM     18  H   UNL     1     -47.068  -8.838 -28.004  0.00  0.00    +0.000 HD
BRANCH  16  19
ATOM     19  C   UNL     1     -44.830 -10.265 -28.072  0.00  0.00    +0.000 C 
ATOM     20  C   UNL     1     -43.998 -10.770 -29.235  0.00  0.00    +0.000 C 
ATOM     21  C   UNL     1     -46.180 -10.957 -28.066  0.00  0.00    +0.000 C 
ENDBRANCH  16  19
ENDBRANCH   5  15
BRANCH   1  22
ATOM     22  C   UNL     1     -47.541  -4.236 -30.705  0.00  0.00    +0.000 C 
BRANCH  22  24
ATOM     23  N   UNL     1     -46.026  -4.004 -32.711  0.00  0.00    +0.000 N 
ATOM     24  C   UNL     1     -46.290  -3.725 -31.332  0.00  0.00    +0.000 C 
ATOM     25  O   UNL     1     -45.475  -3.060 -30.640  0.00  0.00    +0.000 OA
ATOM     26  H   UNL     1     -46.790  -4.249 -33.280  0.00  0.00    +0.000 HD
BRANCH  23  28
ATOM     27  C   UNL     1     -44.085  -2.728 -33.603  0.00  0.00    +0.000 A 
ATOM     28  C   UNL     1     -44.732  -3.953 -33.323  0.00  0.00    +0.000 A 
ATOM     29  C   UNL     1     -44.073  -5.159 -33.586  0.00  0.00    +0.000 A 
ATOM     30  C   UNL     1     -42.804  -5.163 -34.168  0.00  0.00    +0.000 A 
ATOM     31  C   UNL     1     -42.124  -6.452 -34.458  0.00  0.00    +0.000 C 
ATOM     32  C   UNL     1     -42.177  -3.956 -34.483  0.00  0.00    +0.000 A 
ATOM     33  C   UNL     1     -42.812  -2.746 -34.197  0.00  0.00    +0.000 A 
BRANCH  27  35
ATOM     34  C   UNL     1     -44.000  -0.446 -32.640  0.00  0.00    +0.000 C 
ATOM     35  O   UNL     1     -44.697  -1.518 -33.261  0.00  0.00    +0.000 OA
ENDBRANCH  27  35
ENDBRANCH  23  28
ENDBRANCH  22  24
ENDBRANCH   1  22
TORSDOF 7
ENDMDL
