MODEL 1
REMARK VINA RESULT:      -7.3      0.000      0.000
REMARK  Name = ZINC000004702219 ZINC04702219 PubChem-1342041
REMARK  3 active torsions:
REMARK  status: ('A' for Active; 'I' for Inactive)
REMARK    1  A    between atoms: C_3  and  C_22
REMARK    2  A    between atoms: C_4  and  C_16
REMARK    3  A    between atoms: N_24  and  C_26
REMARK                            x       y       z     vdW  Elec       q    Type
REMARK                         _______ _______ _______ _____ _____    ______ ____
ROOT
ATOM      1  C   UNL     1     -44.939  -8.044 -34.005  0.00  0.00    +0.000 C 
ATOM      2  C   UNL     1     -45.052  -6.883 -33.074  0.00  0.00    +0.000 C 
ATOM      3  C   UNL     1     -45.643  -6.964 -31.858  0.00  0.00    +0.000 C 
ATOM      4  C   UNL     1     -45.595  -5.761 -30.931  0.00  0.00    +0.000 C 
ATOM      5  C   UNL     1     -45.368  -4.437 -31.627  0.00  0.00    +0.000 C 
ATOM      6  C   UNL     1     -44.779  -4.406 -32.832  0.00  0.00    +0.000 C 
ATOM      7  N   UNL     1     -44.550  -5.626 -33.541  0.00  0.00    +0.000 N 
ATOM      8  C   UNL     1     -44.477  -3.105 -33.523  0.00  0.00    +0.000 C 
ATOM      9  C   UNL     1     -44.158  -1.976 -32.540  0.00  0.00    +0.000 C 
ATOM     10  C   UNL     1     -45.255  -1.847 -31.479  0.00  0.00    +0.000 C 
ATOM     11  C   UNL     1     -45.690  -3.173 -30.924  0.00  0.00    +0.000 C 
ATOM     12  O   UNL     1     -46.355  -3.197 -29.855  0.00  0.00    +0.000 OA
ATOM     13  C   UNL     1     -44.074  -0.675 -33.307  0.00  0.00    +0.000 C 
ATOM     14  C   UNL     1     -42.815  -2.224 -31.871  0.00  0.00    +0.000 C 
ATOM     15  H   UNL     1     -44.031  -5.601 -34.377  0.00  0.00    +0.000 HD
ENDROOT
BRANCH   4  16
ATOM     16  C   UNL     1     -44.588  -5.964 -29.835  0.00  0.00    +0.000 A 
ATOM     17  C   UNL     1     -44.980  -6.317 -28.538  0.00  0.00    +0.000 A 
ATOM     18  C   UNL     1     -44.018  -6.503 -27.545  0.00  0.00    +0.000 A 
ATOM     19  C   UNL     1     -42.669  -6.334 -27.863  0.00  0.00    +0.000 A 
ATOM     20  N   UNL     1     -42.304  -5.994 -29.128  0.00  0.00    +0.000 NA
ATOM     21  C   UNL     1     -43.226  -5.808 -30.111  0.00  0.00    +0.000 A 
ENDBRANCH   4  16
BRANCH   3  22
ATOM     22  C   UNL     1     -46.293  -8.200 -31.334  0.00  0.00    +0.000 C 
ATOM     23  O   UNL     1     -47.529  -8.395 -31.478  0.00  0.00    +0.000 OA
ATOM     24  N   UNL     1     -45.488  -9.171 -30.648  0.00  0.00    +0.000 N 
ATOM     25  H   UNL     1     -44.536  -8.948 -30.532  0.00  0.00    +0.000 HD
BRANCH  24  26
ATOM     26  C   UNL     1     -45.919 -10.431 -30.116  0.00  0.00    +0.000 A 
ATOM     27  C   UNL     1     -45.826 -11.568 -30.926  0.00  0.00    +0.000 A 
ATOM     28  C   UNL     1     -46.239 -12.815 -30.445  0.00  0.00    +0.000 A 
ATOM     29  C   UNL     1     -46.750 -12.930 -29.150  0.00  0.00    +0.000 A 
ATOM     30  C   UNL     1     -46.847 -11.799 -28.335  0.00  0.00    +0.000 A 
ATOM     31  C   UNL     1     -46.433 -10.554 -28.816  0.00  0.00    +0.000 A 
ATOM     32  F   UNL     1     -47.342 -11.909 -27.079  0.00  0.00    +0.000 F 
ENDBRANCH  24  26
ENDBRANCH   3  22
TORSDOF 3
ENDMDL
MODEL 2
REMARK VINA RESULT:      -7.0      8.971     14.420
REMARK  Name = ZINC000004702219 ZINC04702219 PubChem-1342041
REMARK  3 active torsions:
REMARK  status: ('A' for Active; 'I' for Inactive)
REMARK    1  A    between atoms: C_3  and  C_22
REMARK    2  A    between atoms: C_4  and  C_16
REMARK    3  A    between atoms: N_24  and  C_26
REMARK                            x       y       z     vdW  Elec       q    Type
REMARK                         _______ _______ _______ _____ _____    ______ ____
ROOT
ATOM      1  C   UNL     1     -42.733 -14.256 -22.929  0.00  0.00    +0.000 C 
ATOM      2  C   UNL     1     -43.436 -15.458 -22.394  0.00  0.00    +0.000 C 
ATOM      3  C   UNL     1     -44.642 -15.874 -22.848  0.00  0.00    +0.000 C 
ATOM      4  C   UNL     1     -45.218 -17.181 -22.330  0.00  0.00    +0.000 C 
ATOM      5  C   UNL     1     -44.665 -17.628 -20.994  0.00  0.00    +0.000 C 
ATOM      6  C   UNL     1     -43.464 -17.189 -20.585  0.00  0.00    +0.000 C 
ATOM      7  N   UNL     1     -42.803 -16.152 -21.312  0.00  0.00    +0.000 N 
ATOM      8  C   UNL     1     -42.855 -17.663 -19.294  0.00  0.00    +0.000 C 
ATOM      9  C   UNL     1     -43.247 -19.103 -18.953  0.00  0.00    +0.000 C 
ATOM     10  C   UNL     1     -44.768 -19.282 -18.995  0.00  0.00    +0.000 C 
ATOM     11  C   UNL     1     -45.399 -18.639 -20.197  0.00  0.00    +0.000 C 
ATOM     12  O   UNL     1     -46.577 -18.956 -20.510  0.00  0.00    +0.000 OA
ATOM     13  C   UNL     1     -42.764 -19.418 -17.554  0.00  0.00    +0.000 C 
ATOM     14  C   UNL     1     -42.584 -20.073 -19.918  0.00  0.00    +0.000 C 
ATOM     15  H   UNL     1     -41.883 -15.907 -21.062  0.00  0.00    +0.000 HD
ENDROOT
BRANCH   4  16
ATOM     16  C   UNL     1     -45.081 -18.274 -23.352  0.00  0.00    +0.000 A 
ATOM     17  C   UNL     1     -43.951 -19.101 -23.390  0.00  0.00    +0.000 A 
ATOM     18  C   UNL     1     -43.858 -20.110 -24.349  0.00  0.00    +0.000 A 
ATOM     19  C   UNL     1     -44.901 -20.281 -25.262  0.00  0.00    +0.000 A 
ATOM     20  N   UNL     1     -45.992 -19.471 -25.209  0.00  0.00    +0.000 NA
ATOM     21  C   UNL     1     -46.103 -18.483 -24.283  0.00  0.00    +0.000 A 
ENDBRANCH   4  16
BRANCH   3  22
ATOM     22  C   UNL     1     -45.428 -15.153 -23.890  0.00  0.00    +0.000 C 
ATOM     23  O   UNL     1     -46.633 -14.839 -23.695  0.00  0.00    +0.000 OA
ATOM     24  N   UNL     1     -44.793 -14.823 -25.135  0.00  0.00    +0.000 N 
ATOM     25  H   UNL     1     -43.863 -15.125 -25.246  0.00  0.00    +0.000 HD
BRANCH  24  26
ATOM     26  C   UNL     1     -45.365 -14.099 -26.233  0.00  0.00    +0.000 A 
ATOM     27  C   UNL     1     -45.157 -14.575 -27.532  0.00  0.00    +0.000 A 
ATOM     28  C   UNL     1     -45.695 -13.895 -28.629  0.00  0.00    +0.000 A 
ATOM     29  C   UNL     1     -46.445 -12.733 -28.432  0.00  0.00    +0.000 A 
ATOM     30  C   UNL     1     -46.657 -12.251 -27.138  0.00  0.00    +0.000 A 
ATOM     31  C   UNL     1     -46.119 -12.931 -26.042  0.00  0.00    +0.000 A 
ATOM     32  F   UNL     1     -47.384 -11.124 -26.946  0.00  0.00    +0.000 F 
ENDBRANCH  24  26
ENDBRANCH   3  22
TORSDOF 3
ENDMDL
MODEL 3
REMARK VINA RESULT:      -6.9      3.063      7.713
REMARK  Name = ZINC000004702219 ZINC04702219 PubChem-1342041
REMARK  3 active torsions:
REMARK  status: ('A' for Active; 'I' for Inactive)
REMARK    1  A    between atoms: C_3  and  C_22
REMARK    2  A    between atoms: C_4  and  C_16
REMARK    3  A    between atoms: N_24  and  C_26
REMARK                            x       y       z     vdW  Elec       q    Type
REMARK                         _______ _______ _______ _____ _____    ______ ____
ROOT
ATOM      1  C   UNL     1     -47.034  -5.083 -28.261  0.00  0.00    +0.000 C 
ATOM      2  C   UNL     1     -46.597  -6.360 -28.898  0.00  0.00    +0.000 C 
ATOM      3  C   UNL     1     -46.092  -6.426 -30.153  0.00  0.00    +0.000 C 
ATOM      4  C   UNL     1     -45.557  -7.752 -30.667  0.00  0.00    +0.000 C 
ATOM      5  C   UNL     1     -46.104  -8.971 -29.956  0.00  0.00    +0.000 C 
ATOM      6  C   UNL     1     -46.596  -8.856 -28.713  0.00  0.00    +0.000 C 
ATOM      7  N   UNL     1     -46.785  -7.561 -28.141  0.00  0.00    +0.000 N 
ATOM      8  C   UNL     1     -47.087 -10.057 -27.952  0.00  0.00    +0.000 C 
ATOM      9  C   UNL     1     -46.318 -11.333 -28.305  0.00  0.00    +0.000 C 
ATOM     10  C   UNL     1     -46.295 -11.557 -29.820  0.00  0.00    +0.000 C 
ATOM     11  C   UNL     1     -45.988 -10.304 -30.591  0.00  0.00    +0.000 C 
ATOM     12  O   UNL     1     -45.648 -10.401 -31.800  0.00  0.00    +0.000 OA
ATOM     13  C   UNL     1     -47.010 -12.511 -27.655  0.00  0.00    +0.000 C 
ATOM     14  C   UNL     1     -44.897 -11.258 -27.769  0.00  0.00    +0.000 C 
ATOM     15  H   UNL     1     -47.052  -7.491 -27.196  0.00  0.00    +0.000 HD
ENDROOT
BRANCH   4  16
ATOM     16  C   UNL     1     -44.054  -7.766 -30.661  0.00  0.00    +0.000 A 
ATOM     17  C   UNL     1     -43.329  -7.847 -29.465  0.00  0.00    +0.000 A 
ATOM     18  C   UNL     1     -41.934  -7.863 -29.496  0.00  0.00    +0.000 A 
ATOM     19  C   UNL     1     -41.279  -7.799 -30.727  0.00  0.00    +0.000 A 
ATOM     20  N   UNL     1     -41.998  -7.723 -31.879  0.00  0.00    +0.000 NA
ATOM     21  C   UNL     1     -43.357  -7.707 -31.872  0.00  0.00    +0.000 A 
ENDBRANCH   4  16
BRANCH   3  22
ATOM     22  C   UNL     1     -45.965  -5.247 -31.058  0.00  0.00    +0.000 C 
ATOM     23  O   UNL     1     -46.854  -4.984 -31.911  0.00  0.00    +0.000 OA
ATOM     24  N   UNL     1     -44.803  -4.410 -30.950  0.00  0.00    +0.000 N 
ATOM     25  H   UNL     1     -44.125  -4.685 -30.292  0.00  0.00    +0.000 HD
BRANCH  24  26
ATOM     26  C   UNL     1     -44.524  -3.217 -31.695  0.00  0.00    +0.000 A 
ATOM     27  C   UNL     1     -43.873  -3.332 -32.928  0.00  0.00    +0.000 A 
ATOM     28  C   UNL     1     -43.580  -2.192 -33.683  0.00  0.00    +0.000 A 
ATOM     29  C   UNL     1     -43.937  -0.928 -33.206  0.00  0.00    +0.000 A 
ATOM     30  C   UNL     1     -44.587  -0.804 -31.975  0.00  0.00    +0.000 A 
ATOM     31  C   UNL     1     -44.880  -1.945 -31.222  0.00  0.00    +0.000 A 
ATOM     32  F   UNL     1     -44.933   0.421 -31.513  0.00  0.00    +0.000 F 
ENDBRANCH  24  26
ENDBRANCH   3  22
TORSDOF 3
ENDMDL
