MODEL 1
REMARK VINA RESULT:      -6.1      0.000      0.000
REMARK  Name = ZINC000012801021 ZINC12801021 MolPort-005-751-258 PubChem-25522332
REMARK  5 active torsions:
REMARK  status: ('A' for Active; 'I' for Inactive)
REMARK    1  A    between atoms: N_1  and  C_9
REMARK    2  A    between atoms: C_2  and  C_16
REMARK    3  A    between atoms: C_5  and  O_13
REMARK    4  A    between atoms: C_11  and  O_14
REMARK    5  A    between atoms: C_17  and  C_18
REMARK                            x       y       z     vdW  Elec       q    Type
REMARK                         _______ _______ _______ _____ _____    ______ ____
ROOT
ATOM      1  N   UNL     1     -47.017 -13.101 -17.877  0.00  0.00    +0.000 N 
ATOM      2  C   UNL     1     -47.065 -14.463 -18.328  0.00  0.00    +0.000 C 
ATOM      3  O   UNL     1     -47.206 -15.378 -17.476  0.00  0.00    +0.000 OA
ATOM      4  H   UNL     1     -47.604 -12.858 -17.126  0.00  0.00    +0.000 HD
ENDROOT
BRANCH   1   9
ATOM      5  C   UNL     1     -44.549 -10.060 -19.536  0.00  0.00    +0.000 A 
ATOM      6  C   UNL     1     -44.032 -10.969 -18.599  0.00  0.00    +0.000 A 
ATOM      7  C   UNL     1     -44.842 -11.965 -18.047  0.00  0.00    +0.000 A 
ATOM      8  C   UNL     1     -44.249 -12.908 -17.059  0.00  0.00    +0.000 C 
ATOM      9  C   UNL     1     -46.192 -12.057 -18.420  0.00  0.00    +0.000 A 
ATOM     10  C   UNL     1     -46.702 -11.161 -19.372  0.00  0.00    +0.000 A 
ATOM     11  C   UNL     1     -45.893 -10.157 -19.925  0.00  0.00    +0.000 A 
BRANCH   5  13
ATOM     12  C   UNL     1     -43.552  -7.795 -19.466  0.00  0.00    +0.000 C 
ATOM     13  O   UNL     1     -43.748  -9.057 -20.091  0.00  0.00    +0.000 OA
ENDBRANCH   5  13
BRANCH  11  14
ATOM     14  O   UNL     1     -46.403  -9.250 -20.859  0.00  0.00    +0.000 OA
ATOM     15  C   UNL     1     -47.282  -8.191 -20.502  0.00  0.00    +0.000 C 
ENDBRANCH  11  14
ENDBRANCH   1   9
BRANCH   2  16
ATOM     16  C   UNL     1     -47.017 -14.833 -19.751  0.00  0.00    +0.000 C 
ATOM     17  C   UNL     1     -45.918 -15.294 -20.339  0.00  0.00    +0.000 C 
BRANCH  17  18
ATOM     18  C   UNL     1     -45.861 -15.683 -21.756  0.00  0.00    +0.000 A 
ATOM     19  C   UNL     1     -45.529 -16.911 -22.312  0.00  0.00    +0.000 A 
ATOM     20  C   UNL     1     -45.152 -18.136 -21.542  0.00  0.00    +0.000 C 
ATOM     21  N   UNL     1     -45.590 -16.833 -23.662  0.00  0.00    +0.000 N 
ATOM     22  C   UNL     1     -45.959 -15.560 -23.942  0.00  0.00    +0.000 A 
ATOM     23  C   UNL     1     -46.160 -15.002 -25.312  0.00  0.00    +0.000 C 
ATOM     24  C   UNL     1     -46.138 -14.813 -22.792  0.00  0.00    +0.000 A 
ATOM     25  C   UNL     1     -45.319 -17.883 -24.617  0.00  0.00    +0.000 A 
ATOM     26  N   UNL     1     -46.209 -18.838 -24.948  0.00  0.00    +0.000 NA
ATOM     27  O   UNL     1     -45.625 -19.601 -25.822  0.00  0.00    +0.000 OA
ATOM     28  C   UNL     1     -44.409 -19.181 -26.065  0.00  0.00    +0.000 A 
ATOM     29  C   UNL     1     -43.473 -19.834 -27.016  0.00  0.00    +0.000 C 
ATOM     30  C   UNL     1     -44.132 -18.058 -25.312  0.00  0.00    +0.000 A 
ENDBRANCH  17  18
ENDBRANCH   2  16
TORSDOF 5
ENDMDL
MODEL 2
REMARK VINA RESULT:      -6.1      3.734      8.275
REMARK  Name = ZINC000012801021 ZINC12801021 MolPort-005-751-258 PubChem-25522332
REMARK  5 active torsions:
REMARK  status: ('A' for Active; 'I' for Inactive)
REMARK    1  A    between atoms: N_1  and  C_9
REMARK    2  A    between atoms: C_2  and  C_16
REMARK    3  A    between atoms: C_5  and  O_13
REMARK    4  A    between atoms: C_11  and  O_14
REMARK    5  A    between atoms: C_17  and  C_18
REMARK                            x       y       z     vdW  Elec       q    Type
REMARK                         _______ _______ _______ _____ _____    ______ ____
ROOT
ATOM      1  N   UNL     1     -45.095 -19.324 -24.446  0.00  0.00    +0.000 N 
ATOM      2  C   UNL     1     -44.854 -18.377 -25.497  0.00  0.00    +0.000 C 
ATOM      3  O   UNL     1     -44.729 -18.799 -26.676  0.00  0.00    +0.000 OA
ATOM      4  H   UNL     1     -45.677 -20.088 -24.659  0.00  0.00    +0.000 HD
ENDROOT
BRANCH   1   9
ATOM      5  C   UNL     1     -43.484 -19.084 -20.518  0.00  0.00    +0.000 A 
ATOM      6  C   UNL     1     -42.847 -19.851 -21.506  0.00  0.00    +0.000 A 
ATOM      7  C   UNL     1     -43.378 -19.937 -22.796  0.00  0.00    +0.000 A 
ATOM      8  C   UNL     1     -42.665 -20.761 -23.812  0.00  0.00    +0.000 C 
ATOM      9  C   UNL     1     -44.567 -19.261 -23.112  0.00  0.00    +0.000 A 
ATOM     10  C   UNL     1     -45.191 -18.479 -22.129  0.00  0.00    +0.000 A 
ATOM     11  C   UNL     1     -44.664 -18.393 -20.831  0.00  0.00    +0.000 A 
BRANCH   5  13
ATOM     12  C   UNL     1     -42.778 -20.131 -18.388  0.00  0.00    +0.000 C 
ATOM     13  O   UNL     1     -42.964 -18.995 -19.222  0.00  0.00    +0.000 OA
ENDBRANCH   5  13
BRANCH  11  14
ATOM     14  O   UNL     1     -45.294 -17.630 -19.843  0.00  0.00    +0.000 OA
ATOM     15  C   UNL     1     -46.585 -17.943 -19.337  0.00  0.00    +0.000 C 
ENDBRANCH  11  14
ENDBRANCH   1   9
BRANCH   2  16
ATOM     16  C   UNL     1     -44.806 -16.925 -25.266  0.00  0.00    +0.000 C 
ATOM     17  C   UNL     1     -45.900 -16.178 -25.148  0.00  0.00    +0.000 C 
BRANCH  17  18
ATOM     18  C   UNL     1     -45.865 -14.728 -24.900  0.00  0.00    +0.000 A 
ATOM     19  C   UNL     1     -46.015 -13.685 -25.803  0.00  0.00    +0.000 A 
ATOM     20  C   UNL     1     -46.258 -13.837 -27.271  0.00  0.00    +0.000 C 
ATOM     21  N   UNL     1     -45.901 -12.501 -25.157  0.00  0.00    +0.000 N 
ATOM     22  C   UNL     1     -45.681 -12.810 -23.856  0.00  0.00    +0.000 A 
ATOM     23  C   UNL     1     -45.493 -11.821 -22.755  0.00  0.00    +0.000 C 
ATOM     24  C   UNL     1     -45.651 -14.178 -23.653  0.00  0.00    +0.000 A 
ATOM     25  C   UNL     1     -45.992 -11.175 -25.724  0.00  0.00    +0.000 A 
ATOM     26  N   UNL     1     -47.159 -10.557 -25.991  0.00  0.00    +0.000 NA
ATOM     27  O   UNL     1     -46.857  -9.397 -26.491  0.00  0.00    +0.000 OA
ATOM     28  C   UNL     1     -45.558  -9.244 -26.556  0.00  0.00    +0.000 A 
ATOM     29  C   UNL     1     -44.883  -8.028 -27.080  0.00  0.00    +0.000 C 
ATOM     30  C   UNL     1     -44.920 -10.369 -26.073  0.00  0.00    +0.000 A 
ENDBRANCH  17  18
ENDBRANCH   2  16
TORSDOF 5
ENDMDL
MODEL 3
REMARK VINA RESULT:      -6.0      1.319      2.236
REMARK  Name = ZINC000012801021 ZINC12801021 MolPort-005-751-258 PubChem-25522332
REMARK  5 active torsions:
REMARK  status: ('A' for Active; 'I' for Inactive)
REMARK    1  A    between atoms: N_1  and  C_9
REMARK    2  A    between atoms: C_2  and  C_16
REMARK    3  A    between atoms: C_5  and  O_13
REMARK    4  A    between atoms: C_11  and  O_14
REMARK    5  A    between atoms: C_17  and  C_18
REMARK                            x       y       z     vdW  Elec       q    Type
REMARK                         _______ _______ _______ _____ _____    ______ ____
ROOT
ATOM      1  N   UNL     1     -45.263 -14.172 -17.706  0.00  0.00    +0.000 N 
ATOM      2  C   UNL     1     -44.374 -15.112 -18.327  0.00  0.00    +0.000 C 
ATOM      3  O   UNL     1     -43.574 -15.759 -17.603  0.00  0.00    +0.000 OA
ATOM      4  H   UNL     1     -45.633 -14.421 -16.828  0.00  0.00    +0.000 HD
ENDROOT
BRANCH   1   9
ATOM      5  C   UNL     1     -46.500 -10.404 -19.240  0.00  0.00    +0.000 A 
ATOM      6  C   UNL     1     -47.290 -11.548 -19.431  0.00  0.00    +0.000 A 
ATOM      7  C   UNL     1     -46.883 -12.789 -18.934  0.00  0.00    +0.000 A 
ATOM      8  C   UNL     1     -47.756 -13.974 -19.160  0.00  0.00    +0.000 C 
ATOM      9  C   UNL     1     -45.666 -12.903 -18.244  0.00  0.00    +0.000 A 
ATOM     10  C   UNL     1     -44.888 -11.755 -18.036  0.00  0.00    +0.000 A 
ATOM     11  C   UNL     1     -45.290 -10.508 -18.537  0.00  0.00    +0.000 A 
BRANCH   5  13
ATOM     12  C   UNL     1     -46.703  -8.775 -21.092  0.00  0.00    +0.000 C 
ATOM     13  O   UNL     1     -46.895  -9.158 -19.737  0.00  0.00    +0.000 OA
ENDBRANCH   5  13
BRANCH  11  14
ATOM     14  O   UNL     1     -44.507  -9.365 -18.348  0.00  0.00    +0.000 OA
ATOM     15  C   UNL     1     -43.585  -9.234 -17.273  0.00  0.00    +0.000 C 
ENDBRANCH  11  14
ENDBRANCH   1   9
BRANCH   2  16
ATOM     16  C   UNL     1     -44.398 -15.397 -19.771  0.00  0.00    +0.000 C 
ATOM     17  C   UNL     1     -45.404 -16.031 -20.363  0.00  0.00    +0.000 C 
BRANCH  17  18
ATOM     18  C   UNL     1     -45.447 -16.307 -21.807  0.00  0.00    +0.000 A 
ATOM     19  C   UNL     1     -45.055 -17.451 -22.490  0.00  0.00    +0.000 A 
ATOM     20  C   UNL     1     -44.492 -18.684 -21.860  0.00  0.00    +0.000 C 
ATOM     21  N   UNL     1     -45.252 -17.280 -23.818  0.00  0.00    +0.000 N 
ATOM     22  C   UNL     1     -45.765 -16.034 -23.959  0.00  0.00    +0.000 A 
ATOM     23  C   UNL     1     -46.147 -15.401 -25.254  0.00  0.00    +0.000 C 
ATOM     24  C   UNL     1     -45.903 -15.396 -22.739  0.00  0.00    +0.000 A 
ATOM     25  C   UNL     1     -44.976 -18.224 -24.877  0.00  0.00    +0.000 A 
ATOM     26  N   UNL     1     -45.799 -19.238 -25.206  0.00  0.00    +0.000 NA
ATOM     27  O   UNL     1     -45.232 -19.871 -26.188  0.00  0.00    +0.000 OA
ATOM     28  C   UNL     1     -44.090 -19.313 -26.501  0.00  0.00    +0.000 A 
ATOM     29  C   UNL     1     -43.191 -19.795 -27.582  0.00  0.00    +0.000 C 
ATOM     30  C   UNL     1     -43.849 -18.226 -25.685  0.00  0.00    +0.000 A 
ENDBRANCH  17  18
ENDBRANCH   2  16
TORSDOF 5
ENDMDL
