MODEL 1
REMARK VINA RESULT:      -7.9      0.000      0.000
REMARK  Name = ZINC000113940140 CSC048854728
REMARK  3 active torsions:
REMARK  status: ('A' for Active; 'I' for Inactive)
REMARK    1  A    between atoms: C_2  and  C_5
REMARK    2  A    between atoms: N_3  and  C_18
REMARK    3  A    between atoms: C_23  and  C_24
REMARK                            x       y       z     vdW  Elec       q    Type
REMARK                         _______ _______ _______ _____ _____    ______ ____
ROOT
ATOM      1  O   UNL     1     -45.458  -6.641 -28.038  0.00  0.00    +0.000 OA
ATOM      2  C   UNL     1     -46.448  -5.862 -28.081  0.00  0.00    +0.000 C 
ATOM      3  N   UNL     1     -47.323  -5.839 -29.215  0.00  0.00    +0.000 N 
ATOM      4  H   UNL     1     -48.052  -5.178 -29.189  0.00  0.00    +0.000 HD
ENDROOT
BRANCH   2   5
ATOM      5  C   UNL     1     -46.725  -4.966 -26.954  0.00  0.00    +0.000 A 
ATOM      6  C   UNL     1     -46.673  -5.332 -25.607  0.00  0.00    +0.000 A 
ATOM      7  C   UNL     1     -47.017  -4.160 -24.960  0.00  0.00    +0.000 A 
ATOM      8  C   UNL     1     -47.247  -3.203 -25.912  0.00  0.00    +0.000 A 
ATOM      9  O   UNL     1     -47.066  -3.700 -27.105  0.00  0.00    +0.000 OA
ATOM     10  C   UNL     1     -47.618  -1.900 -25.585  0.00  0.00    +0.000 A 
ATOM     11  C   UNL     1     -47.756  -1.580 -24.223  0.00  0.00    +0.000 A 
ATOM     12  C   UNL     1     -47.522  -2.555 -23.230  0.00  0.00    +0.000 A 
ATOM     13  C   UNL     1     -47.662  -2.229 -21.879  0.00  0.00    +0.000 A 
ATOM     14  C   UNL     1     -47.429  -3.198 -20.897  0.00  0.00    +0.000 A 
ATOM     15  C   UNL     1     -47.057  -4.497 -21.260  0.00  0.00    +0.000 A 
ATOM     16  C   UNL     1     -46.915  -4.838 -22.609  0.00  0.00    +0.000 A 
ATOM     17  C   UNL     1     -47.145  -3.875 -23.598  0.00  0.00    +0.000 A 
ENDBRANCH   2   5
BRANCH   3  18
ATOM     18  C   UNL     1     -47.261  -6.670 -30.386  0.00  0.00    +0.000 A 
ATOM     19  C   UNL     1     -47.682  -8.007 -30.344  0.00  0.00    +0.000 A 
ATOM     20  C   UNL     1     -47.568  -8.828 -31.467  0.00  0.00    +0.000 A 
ATOM     21  C   UNL     1     -47.022  -8.321 -32.646  0.00  0.00    +0.000 A 
ATOM     22  C   UNL     1     -46.599  -6.991 -32.704  0.00  0.00    +0.000 A 
ATOM     23  C   UNL     1     -46.727  -6.151 -31.588  0.00  0.00    +0.000 A 
BRANCH  23  24
ATOM     24  C   UNL     1     -46.261  -4.749 -31.702  0.00  0.00    +0.000 C 
ATOM     25  O   UNL     1     -47.113  -3.819 -31.680  0.00  0.00    +0.000 OA
ATOM     26  N   UNL     1     -44.867  -4.430 -31.824  0.00  0.00    +0.000 N 
ATOM     27  C   UNL     1     -44.466  -3.127 -32.353  0.00  0.00    +0.000 C 
ATOM     28  C   UNL     1     -43.064  -3.235 -32.952  0.00  0.00    +0.000 C 
ATOM     29  O   UNL     1     -42.176  -3.765 -31.998  0.00  0.00    +0.000 OA
ATOM     30  C   UNL     1     -42.524  -5.118 -31.837  0.00  0.00    +0.000 C 
ATOM     31  C   UNL     1     -43.866  -5.228 -31.114  0.00  0.00    +0.000 C 
ENDBRANCH  23  24
ENDBRANCH   3  18
TORSDOF 3
ENDMDL
MODEL 2
REMARK VINA RESULT:      -7.4      2.298      3.302
REMARK  Name = ZINC000113940140 CSC048854728
REMARK  3 active torsions:
REMARK  status: ('A' for Active; 'I' for Inactive)
REMARK    1  A    between atoms: C_2  and  C_5
REMARK    2  A    between atoms: N_3  and  C_18
REMARK    3  A    between atoms: C_23  and  C_24
REMARK                            x       y       z     vdW  Elec       q    Type
REMARK                         _______ _______ _______ _____ _____    ______ ____
ROOT
ATOM      1  O   UNL     1     -46.667  -4.766 -29.793  0.00  0.00    +0.000 OA
ATOM      2  C   UNL     1     -46.889  -5.365 -28.707  0.00  0.00    +0.000 C 
ATOM      3  N   UNL     1     -47.013  -6.792 -28.661  0.00  0.00    +0.000 N 
ATOM      4  H   UNL     1     -47.222  -7.183 -27.781  0.00  0.00    +0.000 HD
ENDROOT
BRANCH   2   5
ATOM      5  C   UNL     1     -47.014  -4.602 -27.461  0.00  0.00    +0.000 A 
ATOM      6  C   UNL     1     -46.876  -5.134 -26.177  0.00  0.00    +0.000 A 
ATOM      7  C   UNL     1     -47.090  -4.033 -25.368  0.00  0.00    +0.000 A 
ATOM      8  C   UNL     1     -47.334  -2.956 -26.176  0.00  0.00    +0.000 A 
ATOM      9  O   UNL     1     -47.284  -3.311 -27.431  0.00  0.00    +0.000 OA
ATOM     10  C   UNL     1     -47.593  -1.685 -25.666  0.00  0.00    +0.000 A 
ATOM     11  C   UNL     1     -47.598  -1.528 -24.268  0.00  0.00    +0.000 A 
ATOM     12  C   UNL     1     -47.347  -2.629 -23.422  0.00  0.00    +0.000 A 
ATOM     13  C   UNL     1     -47.354  -2.465 -22.035  0.00  0.00    +0.000 A 
ATOM     14  C   UNL     1     -47.105  -3.558 -21.199  0.00  0.00    +0.000 A 
ATOM     15  C   UNL     1     -46.849  -4.821 -21.745  0.00  0.00    +0.000 A 
ATOM     16  C   UNL     1     -46.839  -5.001 -23.132  0.00  0.00    +0.000 A 
ATOM     17  C   UNL     1     -47.087  -3.912 -23.976  0.00  0.00    +0.000 A 
ENDBRANCH   2   5
BRANCH   3  18
ATOM     18  C   UNL     1     -46.866  -7.719 -29.748  0.00  0.00    +0.000 A 
ATOM     19  C   UNL     1     -47.599  -7.561 -30.934  0.00  0.00    +0.000 A 
ATOM     20  C   UNL     1     -47.497  -8.494 -31.967  0.00  0.00    +0.000 A 
ATOM     21  C   UNL     1     -46.666  -9.604 -31.821  0.00  0.00    +0.000 A 
ATOM     22  C   UNL     1     -45.929  -9.775 -30.647  0.00  0.00    +0.000 A 
ATOM     23  C   UNL     1     -46.007  -8.834 -29.610  0.00  0.00    +0.000 A 
BRANCH  23  24
ATOM     24  C   UNL     1     -45.207  -9.063 -28.385  0.00  0.00    +0.000 C 
ATOM     25  O   UNL     1     -45.493 -10.043 -27.643  0.00  0.00    +0.000 OA
ATOM     26  N   UNL     1     -44.110  -8.206 -28.034  0.00  0.00    +0.000 N 
ATOM     27  C   UNL     1     -43.622  -8.181 -26.655  0.00  0.00    +0.000 C 
ATOM     28  C   UNL     1     -42.939  -6.841 -26.386  0.00  0.00    +0.000 C 
ATOM     29  O   UNL     1     -41.942  -6.610 -27.351  0.00  0.00    +0.000 OA
ATOM     30  C   UNL     1     -42.610  -6.352 -28.562  0.00  0.00    +0.000 C 
ATOM     31  C   UNL     1     -43.260  -7.635 -29.081  0.00  0.00    +0.000 C 
ENDBRANCH  23  24
ENDBRANCH   3  18
TORSDOF 3
ENDMDL
MODEL 3
REMARK VINA RESULT:      -7.3      2.963      4.261
REMARK  Name = ZINC000113940140 CSC048854728
REMARK  3 active torsions:
REMARK  status: ('A' for Active; 'I' for Inactive)
REMARK    1  A    between atoms: C_2  and  C_5
REMARK    2  A    between atoms: N_3  and  C_18
REMARK    3  A    between atoms: C_23  and  C_24
REMARK                            x       y       z     vdW  Elec       q    Type
REMARK                         _______ _______ _______ _____ _____    ______ ____
ROOT
ATOM      1  O   UNL     1     -45.959  -9.420 -25.248  0.00  0.00    +0.000 OA
ATOM      2  C   UNL     1     -46.289  -8.696 -26.225  0.00  0.00    +0.000 C 
ATOM      3  N   UNL     1     -46.447  -9.250 -27.537  0.00  0.00    +0.000 N 
ATOM      4  H   UNL     1     -46.671  -8.614 -28.254  0.00  0.00    +0.000 HD
ENDROOT
BRANCH   2   5
ATOM      5  C   UNL     1     -46.529  -7.263 -26.028  0.00  0.00    +0.000 A 
ATOM      6  C   UNL     1     -46.600  -6.625 -24.788  0.00  0.00    +0.000 A 
ATOM      7  C   UNL     1     -46.845  -5.309 -25.136  0.00  0.00    +0.000 A 
ATOM      8  C   UNL     1     -46.905  -5.238 -26.502  0.00  0.00    +0.000 A 
ATOM      9  O   UNL     1     -46.711  -6.418 -27.025  0.00  0.00    +0.000 OA
ATOM     10  C   UNL     1     -47.142  -4.041 -27.176  0.00  0.00    +0.000 A 
ATOM     11  C   UNL     1     -47.324  -2.880 -26.405  0.00  0.00    +0.000 A 
ATOM     12  C   UNL     1     -47.265  -2.937 -24.996  0.00  0.00    +0.000 A 
ATOM     13  C   UNL     1     -47.447  -1.778 -24.238  0.00  0.00    +0.000 A 
ATOM     14  C   UNL     1     -47.388  -1.839 -22.842  0.00  0.00    +0.000 A 
ATOM     15  C   UNL     1     -47.147  -3.057 -22.197  0.00  0.00    +0.000 A 
ATOM     16  C   UNL     1     -46.964  -4.226 -22.943  0.00  0.00    +0.000 A 
ATOM     17  C   UNL     1     -47.021  -4.174 -24.340  0.00  0.00    +0.000 A 
ENDBRANCH   2   5
BRANCH   3  18
ATOM     18  C   UNL     1     -46.317 -10.627 -27.927  0.00  0.00    +0.000 A 
ATOM     19  C   UNL     1     -46.965 -11.643 -27.209  0.00  0.00    +0.000 A 
ATOM     20  C   UNL     1     -46.793 -12.984 -27.556  0.00  0.00    +0.000 A 
ATOM     21  C   UNL     1     -45.961 -13.325 -28.622  0.00  0.00    +0.000 A 
ATOM     22  C   UNL     1     -45.310 -12.324 -29.347  0.00  0.00    +0.000 A 
ATOM     23  C   UNL     1     -45.491 -10.972 -29.021  0.00  0.00    +0.000 A 
BRANCH  23  24
ATOM     24  C   UNL     1     -44.776  -9.951 -29.820  0.00  0.00    +0.000 C 
ATOM     25  O   UNL     1     -43.522  -9.863 -29.717  0.00  0.00    +0.000 OA
ATOM     26  N   UNL     1     -45.477  -9.072 -30.715  0.00  0.00    +0.000 N 
ATOM     27  C   UNL     1     -44.843  -7.829 -31.153  0.00  0.00    +0.000 C 
ATOM     28  C   UNL     1     -45.924  -6.824 -31.547  0.00  0.00    +0.000 C 
ATOM     29  O   UNL     1     -46.784  -7.397 -32.502  0.00  0.00    +0.000 OA
ATOM     30  C   UNL     1     -47.536  -8.375 -31.825  0.00  0.00    +0.000 C 
ATOM     31  C   UNL     1     -46.640  -9.558 -31.458  0.00  0.00    +0.000 C 
ENDBRANCH  23  24
ENDBRANCH   3  18
TORSDOF 3
ENDMDL
