MODEL 1
REMARK VINA RESULT:      -6.6      0.000      0.000
REMARK  Name = ZINC000014607688
REMARK  6 active torsions:
REMARK  status: ('A' for Active; 'I' for Inactive)
REMARK    1  A    between atoms: C_1  and  C_32
REMARK    2  A    between atoms: C_7  and  C_17
REMARK    3  A    between atoms: C_10  and  C_11
REMARK    4  A    between atoms: N_19  and  C_21
REMARK    5  A    between atoms: C_23  and  O_27
REMARK    6  A    between atoms: C_26  and  O_29
REMARK                            x       y       z     vdW  Elec       q    Type
REMARK                         _______ _______ _______ _____ _____    ______ ____
ROOT
ATOM      1  C   UNL     1     -44.073 -19.020 -19.782  0.00  0.00    +0.000 A 
ATOM      2  N   UNL     1     -43.638 -19.721 -20.858  0.00  0.00    +0.000 NA
ATOM      3  N   UNL     1     -44.162 -19.141 -21.924  0.00  0.00    +0.000 N 
ATOM      4  C   UNL     1     -44.915 -18.100 -21.561  0.00  0.00    +0.000 A 
ATOM      5  N   UNL     1     -45.564 -17.356 -22.485  0.00  0.00    +0.000 NA
ATOM      6  N   UNL     1     -45.439 -17.675 -23.777  0.00  0.00    +0.000 NA
ATOM      7  C   UNL     1     -44.681 -18.735 -24.197  0.00  0.00    +0.000 A 
ATOM      8  C   UNL     1     -44.003 -19.505 -23.221  0.00  0.00    +0.000 A 
ATOM      9  C   UNL     1     -43.177 -20.702 -23.569  0.00  0.00    +0.000 C 
ATOM     10  C   UNL     1     -44.908 -17.967 -20.186  0.00  0.00    +0.000 A 
ENDROOT
BRANCH  10  11
ATOM     11  C   UNL     1     -45.647 -16.979 -19.361  0.00  0.00    +0.000 A 
ATOM     12  C   UNL     1     -44.995 -15.838 -18.869  0.00  0.00    +0.000 A 
ATOM     13  C   UNL     1     -45.689 -14.898 -18.102  0.00  0.00    +0.000 A 
ATOM     14  C   UNL     1     -47.043 -15.089 -17.820  0.00  0.00    +0.000 A 
ATOM     15  C   UNL     1     -47.704 -16.219 -18.306  0.00  0.00    +0.000 A 
ATOM     16  C   UNL     1     -47.008 -17.158 -19.074  0.00  0.00    +0.000 A 
ENDBRANCH  10  11
BRANCH   7  17
ATOM     17  C   UNL     1     -44.583 -19.019 -25.648  0.00  0.00    +0.000 C 
ATOM     18  O   UNL     1     -45.131 -20.050 -26.120  0.00  0.00    +0.000 OA
ATOM     19  N   UNL     1     -43.802 -18.196 -26.527  0.00  0.00    +0.000 N 
ATOM     20  H   UNL     1     -43.392 -18.643 -27.302  0.00  0.00    +0.000 HD
BRANCH  19  21
ATOM     21  C   UNL     1     -43.558 -16.788 -26.391  0.00  0.00    +0.000 A 
ATOM     22  C   UNL     1     -44.486 -15.866 -26.901  0.00  0.00    +0.000 A 
ATOM     23  C   UNL     1     -44.257 -14.487 -26.822  0.00  0.00    +0.000 A 
ATOM     24  C   UNL     1     -43.073 -14.023 -26.250  0.00  0.00    +0.000 A 
ATOM     25  C   UNL     1     -42.133 -14.926 -25.755  0.00  0.00    +0.000 A 
ATOM     26  C   UNL     1     -42.354 -16.306 -25.815  0.00  0.00    +0.000 A 
BRANCH  23  27
ATOM     27  O   UNL     1     -45.185 -13.561 -27.308  0.00  0.00    +0.000 OA
ATOM     28  C   UNL     1     -46.257 -13.065 -26.517  0.00  0.00    +0.000 C 
ENDBRANCH  23  27
BRANCH  26  29
ATOM     29  O   UNL     1     -41.346 -17.130 -25.289  0.00  0.00    +0.000 OA
ATOM     30  C   UNL     1     -41.170 -17.431 -23.912  0.00  0.00    +0.000 C 
ENDBRANCH  26  29
ENDBRANCH  19  21
ENDBRANCH   7  17
BRANCH   1  32
ATOM     31  C   UNL     1     -42.511 -18.538 -17.932  0.00  0.00    +0.000 C 
ATOM     32  C   UNL     1     -43.687 -19.382 -18.387  0.00  0.00    +0.000 C 
ENDBRANCH   1  32
TORSDOF 6
ENDMDL
MODEL 2
REMARK VINA RESULT:      -6.2      0.973      2.647
REMARK  Name = ZINC000014607688
REMARK  6 active torsions:
REMARK  status: ('A' for Active; 'I' for Inactive)
REMARK    1  A    between atoms: C_1  and  C_32
REMARK    2  A    between atoms: C_7  and  C_17
REMARK    3  A    between atoms: C_10  and  C_11
REMARK    4  A    between atoms: N_19  and  C_21
REMARK    5  A    between atoms: C_23  and  O_27
REMARK    6  A    between atoms: C_26  and  O_29
REMARK                            x       y       z     vdW  Elec       q    Type
REMARK                         _______ _______ _______ _____ _____    ______ ____
ROOT
ATOM      1  C   UNL     1     -44.057 -18.978 -19.887  0.00  0.00    +0.000 A 
ATOM      2  N   UNL     1     -43.626 -19.680 -20.963  0.00  0.00    +0.000 NA
ATOM      3  N   UNL     1     -44.072 -19.045 -22.033  0.00  0.00    +0.000 N 
ATOM      4  C   UNL     1     -44.772 -17.967 -21.673  0.00  0.00    +0.000 A 
ATOM      5  N   UNL     1     -45.338 -17.164 -22.602  0.00  0.00    +0.000 NA
ATOM      6  N   UNL     1     -45.183 -17.461 -23.896  0.00  0.00    +0.000 NA
ATOM      7  C   UNL     1     -44.477 -18.557 -24.313  0.00  0.00    +0.000 A 
ATOM      8  C   UNL     1     -43.885 -19.390 -23.332  0.00  0.00    +0.000 A 
ATOM      9  C   UNL     1     -43.123 -20.628 -23.678  0.00  0.00    +0.000 C 
ATOM     10  C   UNL     1     -44.809 -17.865 -20.296  0.00  0.00    +0.000 A 
ENDROOT
BRANCH  10  11
ATOM     11  C   UNL     1     -45.516 -16.851 -19.475  0.00  0.00    +0.000 A 
ATOM     12  C   UNL     1     -44.833 -15.720 -19.002  0.00  0.00    +0.000 A 
ATOM     13  C   UNL     1     -45.497 -14.756 -18.239  0.00  0.00    +0.000 A 
ATOM     14  C   UNL     1     -46.852 -14.912 -17.941  0.00  0.00    +0.000 A 
ATOM     15  C   UNL     1     -47.544 -16.031 -18.408  0.00  0.00    +0.000 A 
ATOM     16  C   UNL     1     -46.878 -16.995 -19.172  0.00  0.00    +0.000 A 
ENDBRANCH  10  11
BRANCH   7  17
ATOM     17  C   UNL     1     -44.341 -18.815 -25.767  0.00  0.00    +0.000 C 
ATOM     18  O   UNL     1     -45.125 -19.621 -26.333  0.00  0.00    +0.000 OA
ATOM     19  N   UNL     1     -43.279 -18.236 -26.539  0.00  0.00    +0.000 N 
ATOM     20  H   UNL     1     -42.953 -18.762 -27.305  0.00  0.00    +0.000 HD
BRANCH  19  21
ATOM     21  C   UNL     1     -42.644 -16.969 -26.310  0.00  0.00    +0.000 A 
ATOM     22  C   UNL     1     -41.400 -16.918 -25.661  0.00  0.00    +0.000 A 
ATOM     23  C   UNL     1     -40.774 -15.696 -25.385  0.00  0.00    +0.000 A 
ATOM     24  C   UNL     1     -41.411 -14.508 -25.740  0.00  0.00    +0.000 A 
ATOM     25  C   UNL     1     -42.655 -14.540 -26.371  0.00  0.00    +0.000 A 
ATOM     26  C   UNL     1     -43.286 -15.754 -26.664  0.00  0.00    +0.000 A 
BRANCH  23  27
ATOM     27  O   UNL     1     -39.527 -15.637 -24.758  0.00  0.00    +0.000 OA
ATOM     28  C   UNL     1     -38.832 -16.798 -24.324  0.00  0.00    +0.000 C 
ENDBRANCH  23  27
BRANCH  26  29
ATOM     29  O   UNL     1     -44.535 -15.679 -27.300  0.00  0.00    +0.000 OA
ATOM     30  C   UNL     1     -45.150 -14.484 -27.759  0.00  0.00    +0.000 C 
ENDBRANCH  26  29
ENDBRANCH  19  21
ENDBRANCH   7  17
BRANCH   1  32
ATOM     31  C   UNL     1     -44.647 -20.543 -18.072  0.00  0.00    +0.000 C 
ATOM     32  C   UNL     1     -43.748 -19.394 -18.488  0.00  0.00    +0.000 C 
ENDBRANCH   1  32
TORSDOF 6
ENDMDL
MODEL 3
REMARK VINA RESULT:      -6.2     10.557     13.530
REMARK  Name = ZINC000014607688
REMARK  6 active torsions:
REMARK  status: ('A' for Active; 'I' for Inactive)
REMARK    1  A    between atoms: C_1  and  C_32
REMARK    2  A    between atoms: C_7  and  C_17
REMARK    3  A    between atoms: C_10  and  C_11
REMARK    4  A    between atoms: N_19  and  C_21
REMARK    5  A    between atoms: C_23  and  O_27
REMARK    6  A    between atoms: C_26  and  O_29
REMARK                            x       y       z     vdW  Elec       q    Type
REMARK                         _______ _______ _______ _____ _____    ______ ____
ROOT
ATOM      1  C   UNL     1     -47.088  -4.506 -26.446  0.00  0.00    +0.000 A 
ATOM      2  N   UNL     1     -47.243  -4.187 -27.754  0.00  0.00    +0.000 NA
ATOM      3  N   UNL     1     -46.899  -5.258 -28.448  0.00  0.00    +0.000 N 
ATOM      4  C   UNL     1     -46.530  -6.243 -27.626  0.00  0.00    +0.000 A 
ATOM      5  N   UNL     1     -46.124  -7.438 -28.111  0.00  0.00    +0.000 NA
ATOM      6  N   UNL     1     -46.101  -7.625 -29.435  0.00  0.00    +0.000 NA
ATOM      7  C   UNL     1     -46.467  -6.644 -30.317  0.00  0.00    +0.000 A 
ATOM      8  C   UNL     1     -46.893  -5.398 -29.798  0.00  0.00    +0.000 A 
ATOM      9  C   UNL     1     -47.282  -4.250 -30.673  0.00  0.00    +0.000 C 
ATOM     10  C   UNL     1     -46.622  -5.823 -26.313  0.00  0.00    +0.000 A 
ENDROOT
BRANCH  10  11
ATOM     11  C   UNL     1     -46.263  -6.577 -25.087  0.00  0.00    +0.000 A 
ATOM     12  C   UNL     1     -44.919  -6.847 -24.789  0.00  0.00    +0.000 A 
ATOM     13  C   UNL     1     -44.574  -7.546 -23.629  0.00  0.00    +0.000 A 
ATOM     14  C   UNL     1     -45.570  -7.983 -22.753  0.00  0.00    +0.000 A 
ATOM     15  C   UNL     1     -46.912  -7.718 -23.037  0.00  0.00    +0.000 A 
ATOM     16  C   UNL     1     -47.255  -7.018 -24.198  0.00  0.00    +0.000 A 
ENDBRANCH  10  11
BRANCH   7  17
ATOM     17  C   UNL     1     -46.424  -6.932 -31.771  0.00  0.00    +0.000 C 
ATOM     18  O   UNL     1     -47.382  -7.542 -32.314  0.00  0.00    +0.000 OA
ATOM     19  N   UNL     1     -45.276  -6.610 -32.569  0.00  0.00    +0.000 N 
ATOM     20  H   UNL     1     -45.094  -7.198 -33.337  0.00  0.00    +0.000 HD
BRANCH  19  21
ATOM     21  C   UNL     1     -44.367  -5.517 -32.364  0.00  0.00    +0.000 A 
ATOM     22  C   UNL     1     -44.578  -4.299 -33.028  0.00  0.00    +0.000 A 
ATOM     23  C   UNL     1     -43.687  -3.228 -32.882  0.00  0.00    +0.000 A 
ATOM     24  C   UNL     1     -42.557  -3.386 -32.081  0.00  0.00    +0.000 A 
ATOM     25  C   UNL     1     -42.323  -4.596 -31.428  0.00  0.00    +0.000 A 
ATOM     26  C   UNL     1     -43.212  -5.670 -31.555  0.00  0.00    +0.000 A 
BRANCH  23  27
ATOM     27  O   UNL     1     -43.900  -2.005 -33.523  0.00  0.00    +0.000 OA
ATOM     28  C   UNL     1     -44.006  -0.778 -32.815  0.00  0.00    +0.000 C 
ENDBRANCH  23  27
BRANCH  26  29
ATOM     29  O   UNL     1     -42.887  -6.843 -30.856  0.00  0.00    +0.000 OA
ATOM     30  C   UNL     1     -42.407  -6.895 -29.521  0.00  0.00    +0.000 C 
ENDBRANCH  26  29
ENDBRANCH  19  21
ENDBRANCH   7  17
BRANCH   1  32
ATOM     31  C   UNL     1     -47.382  -2.119 -25.890  0.00  0.00    +0.000 C 
ATOM     32  C   UNL     1     -47.381  -3.537 -25.350  0.00  0.00    +0.000 C 
ENDBRANCH   1  32
TORSDOF 6
ENDMDL
