MODEL 1
REMARK VINA RESULT:      -6.2      0.000      0.000
REMARK  Name = ZINC000004878449 PubChem-12923698
REMARK  9 active torsions:
REMARK  status: ('A' for Active; 'I' for Inactive)
REMARK    1  A    between atoms: N_17  and  C_20
REMARK    2  A    between atoms: C_20  and  C_21
REMARK    3  A    between atoms: C_21  and  O_22
REMARK    4  A    between atoms: C_21  and  C_24
REMARK    5  A    between atoms: C_24  and  O_25
REMARK    6  A    between atoms: C_24  and  C_27
REMARK    7  A    between atoms: C_27  and  O_28
REMARK    8  A    between atoms: C_27  and  C_30
REMARK    9  A    between atoms: C_30  and  O_31
REMARK                            x       y       z     vdW  Elec       q    Type
REMARK                         _______ _______ _______ _____ _____    ______ ____
ROOT
ATOM      1  C   UNL     1     -46.032 -16.573 -18.850  0.00  0.00    +0.000 C 
ATOM      2  C   UNL     1     -45.839 -16.614 -20.329  0.00  0.00    +0.000 A 
ATOM      3  C   UNL     1     -45.531 -17.812 -20.996  0.00  0.00    +0.000 A 
ATOM      4  C   UNL     1     -45.357 -17.810 -22.382  0.00  0.00    +0.000 A 
ATOM      5  C   UNL     1     -45.483 -16.626 -23.129  0.00  0.00    +0.000 A 
ATOM      6  C   UNL     1     -45.796 -15.424 -22.442  0.00  0.00    +0.000 A 
ATOM      7  C   UNL     1     -45.969 -15.429 -21.056  0.00  0.00    +0.000 A 
ATOM      8  C   UNL     1     -45.934 -14.226 -23.138  0.00  0.00    +0.000 A 
ATOM      9  C   UNL     1     -45.766 -14.209 -24.517  0.00  0.00    +0.000 A 
ATOM     10  C   UNL     1     -45.889 -13.053 -25.289  0.00  0.00    +0.000 A 
ATOM     11  O   UNL     1     -46.163 -11.945 -24.756  0.00  0.00    +0.000 OA
ATOM     12  N   UNL     1     -45.710 -13.125 -26.635  0.00  0.00    +0.000 N 
ATOM     13  C   UNL     1     -45.413 -14.294 -27.266  0.00  0.00    +0.000 A 
ATOM     14  O   UNL     1     -45.257 -14.307 -28.514  0.00  0.00    +0.000 OA
ATOM     15  N   UNL     1     -45.281 -15.448 -26.560  0.00  0.00    +0.000 NA
ATOM     16  C   UNL     1     -45.441 -15.470 -25.210  0.00  0.00    +0.000 A 
ATOM     17  N   UNL     1     -45.308 -16.628 -24.494  0.00  0.00    +0.000 N 
ATOM     18  C   UNL     1     -45.383 -19.100 -20.259  0.00  0.00    +0.000 C 
ATOM     19  H   UNL     1     -45.799 -12.304 -27.172  0.00  0.00    +0.000 HD
ENDROOT
BRANCH  17  20
ATOM     20  C   UNL     1     -44.968 -17.868 -25.199  0.00  0.00    +0.000 C 
BRANCH  20  21
ATOM     21  C   UNL     1     -43.460 -18.004 -25.351  0.00  0.00    +0.000 C 
BRANCH  21  22
ATOM     22  O   UNL     1     -42.852 -16.749 -25.249  0.00  0.00    +0.000 OA
ATOM     23  H   UNL     1     -42.310 -16.717 -24.445  0.00  0.00    +0.000 HD
ENDBRANCH  21  22
BRANCH  21  24
ATOM     24  C   UNL     1     -43.129 -18.663 -26.693  0.00  0.00    +0.000 C 
BRANCH  24  25
ATOM     25  O   UNL     1     -44.272 -19.206 -27.287  0.00  0.00    +0.000 OA
ATOM     26  H   UNL     1     -44.099 -20.126 -27.541  0.00  0.00    +0.000 HD
ENDBRANCH  24  25
BRANCH  24  27
ATOM     27  C   UNL     1     -42.401 -17.732 -27.665  0.00  0.00    +0.000 C 
BRANCH  27  28
ATOM     28  O   UNL     1     -43.274 -16.749 -28.134  0.00  0.00    +0.000 OA
ATOM     29  H   UNL     1     -42.776 -16.093 -28.647  0.00  0.00    +0.000 HD
ENDBRANCH  27  28
BRANCH  27  30
ATOM     30  C   UNL     1     -41.775 -18.481 -28.832  0.00  0.00    +0.000 C 
BRANCH  30  31
ATOM     31  O   UNL     1     -42.586 -18.363 -29.960  0.00  0.00    +0.000 OA
ATOM     32  H   UNL     1     -43.356 -17.814 -29.749  0.00  0.00    +0.000 HD
ENDBRANCH  30  31
ENDBRANCH  27  30
ENDBRANCH  24  27
ENDBRANCH  21  24
ENDBRANCH  20  21
ENDBRANCH  17  20
TORSDOF 9
ENDMDL
MODEL 2
REMARK VINA RESULT:      -6.1      3.574      6.051
REMARK  Name = ZINC000004878449 PubChem-12923698
REMARK  9 active torsions:
REMARK  status: ('A' for Active; 'I' for Inactive)
REMARK    1  A    between atoms: N_17  and  C_20
REMARK    2  A    between atoms: C_20  and  C_21
REMARK    3  A    between atoms: C_21  and  O_22
REMARK    4  A    between atoms: C_21  and  C_24
REMARK    5  A    between atoms: C_24  and  O_25
REMARK    6  A    between atoms: C_24  and  C_27
REMARK    7  A    between atoms: C_27  and  O_28
REMARK    8  A    between atoms: C_27  and  C_30
REMARK    9  A    between atoms: C_30  and  O_31
REMARK                            x       y       z     vdW  Elec       q    Type
REMARK                         _______ _______ _______ _____ _____    ______ ____
ROOT
ATOM      1  C   UNL     1     -46.582 -12.501 -19.500  0.00  0.00    +0.000 C 
ATOM      2  C   UNL     1     -46.328 -13.856 -20.067  0.00  0.00    +0.000 A 
ATOM      3  C   UNL     1     -46.285 -14.999 -19.250  0.00  0.00    +0.000 A 
ATOM      4  C   UNL     1     -46.043 -16.251 -19.820  0.00  0.00    +0.000 A 
ATOM      5  C   UNL     1     -45.840 -16.394 -21.204  0.00  0.00    +0.000 A 
ATOM      6  C   UNL     1     -45.888 -15.232 -22.017  0.00  0.00    +0.000 A 
ATOM      7  C   UNL     1     -46.129 -13.981 -21.444  0.00  0.00    +0.000 A 
ATOM      8  C   UNL     1     -45.695 -15.322 -23.393  0.00  0.00    +0.000 A 
ATOM      9  C   UNL     1     -45.457 -16.561 -23.973  0.00  0.00    +0.000 A 
ATOM     10  C   UNL     1     -45.256 -16.739 -25.343  0.00  0.00    +0.000 A 
ATOM     11  O   UNL     1     -45.281 -15.758 -26.133  0.00  0.00    +0.000 OA
ATOM     12  N   UNL     1     -45.030 -17.988 -25.830  0.00  0.00    +0.000 N 
ATOM     13  C   UNL     1     -44.993 -19.085 -25.024  0.00  0.00    +0.000 A 
ATOM     14  O   UNL     1     -44.780 -20.219 -25.525  0.00  0.00    +0.000 OA
ATOM     15  N   UNL     1     -45.181 -18.966 -23.683  0.00  0.00    +0.000 NA
ATOM     16  C   UNL     1     -45.411 -17.756 -23.109  0.00  0.00    +0.000 A 
ATOM     17  N   UNL     1     -45.600 -17.629 -21.760  0.00  0.00    +0.000 N 
ATOM     18  C   UNL     1     -46.491 -14.913 -17.776  0.00  0.00    +0.000 C 
ATOM     19  H   UNL     1     -44.890 -18.104 -26.798  0.00  0.00    +0.000 HD
ENDROOT
BRANCH  17  20
ATOM     20  C   UNL     1     -45.534 -18.827 -20.915  0.00  0.00    +0.000 C 
BRANCH  20  21
ATOM     21  C   UNL     1     -44.113 -19.060 -20.424  0.00  0.00    +0.000 C 
BRANCH  21  22
ATOM     22  O   UNL     1     -43.458 -19.968 -21.261  0.00  0.00    +0.000 OA
ATOM     23  H   UNL     1     -43.776 -19.856 -22.171  0.00  0.00    +0.000 HD
ENDBRANCH  21  22
BRANCH  21  24
ATOM     24  C   UNL     1     -44.138 -19.569 -18.980  0.00  0.00    +0.000 C 
BRANCH  24  25
ATOM     25  O   UNL     1     -45.281 -20.335 -18.732  0.00  0.00    +0.000 OA
ATOM     26  H   UNL     1     -45.976 -19.770 -18.364  0.00  0.00    +0.000 HD
ENDBRANCH  24  25
BRANCH  24  27
ATOM     27  C   UNL     1     -42.873 -20.334 -18.583  0.00  0.00    +0.000 C 
BRANCH  27  28
ATOM     28  O   UNL     1     -43.211 -21.589 -18.073  0.00  0.00    +0.000 OA
ATOM     29  H   UNL     1     -44.162 -21.739 -18.189  0.00  0.00    +0.000 HD
ENDBRANCH  27  28
BRANCH  27  30
ATOM     30  C   UNL     1     -42.019 -19.570 -17.582  0.00  0.00    +0.000 C 
BRANCH  30  31
ATOM     31  O   UNL     1     -42.704 -19.446 -16.373  0.00  0.00    +0.000 OA
ATOM     32  H   UNL     1     -43.636 -19.244 -16.548  0.00  0.00    +0.000 HD
ENDBRANCH  30  31
ENDBRANCH  27  30
ENDBRANCH  24  27
ENDBRANCH  21  24
ENDBRANCH  20  21
ENDBRANCH  17  20
TORSDOF 9
ENDMDL
MODEL 3
REMARK VINA RESULT:      -5.8     10.287     13.470
REMARK  Name = ZINC000004878449 PubChem-12923698
REMARK  9 active torsions:
REMARK  status: ('A' for Active; 'I' for Inactive)
REMARK    1  A    between atoms: N_17  and  C_20
REMARK    2  A    between atoms: C_20  and  C_21
REMARK    3  A    between atoms: C_21  and  O_22
REMARK    4  A    between atoms: C_21  and  C_24
REMARK    5  A    between atoms: C_24  and  O_25
REMARK    6  A    between atoms: C_24  and  C_27
REMARK    7  A    between atoms: C_27  and  O_28
REMARK    8  A    between atoms: C_27  and  C_30
REMARK    9  A    between atoms: C_30  and  O_31
REMARK                            x       y       z     vdW  Elec       q    Type
REMARK                         _______ _______ _______ _____ _____    ______ ____
ROOT
ATOM      1  C   UNL     1     -45.575 -10.861 -32.221  0.00  0.00    +0.000 C 
ATOM      2  C   UNL     1     -45.952  -9.485 -31.785  0.00  0.00    +0.000 A 
ATOM      3  C   UNL     1     -46.333  -8.499 -32.712  0.00  0.00    +0.000 A 
ATOM      4  C   UNL     1     -46.677  -7.222 -32.265  0.00  0.00    +0.000 A 
ATOM      5  C   UNL     1     -46.651  -6.898 -30.897  0.00  0.00    +0.000 A 
ATOM      6  C   UNL     1     -46.266  -7.904 -29.972  0.00  0.00    +0.000 A 
ATOM      7  C   UNL     1     -45.921  -9.180 -30.423  0.00  0.00    +0.000 A 
ATOM      8  C   UNL     1     -46.226  -7.634 -28.607  0.00  0.00    +0.000 A 
ATOM      9  C   UNL     1     -46.569  -6.369 -28.148  0.00  0.00    +0.000 A 
ATOM     10  C   UNL     1     -46.559  -6.015 -26.797  0.00  0.00    +0.000 A 
ATOM     11  O   UNL     1     -46.227  -6.849 -25.913  0.00  0.00    +0.000 OA
ATOM     12  N   UNL     1     -46.910  -4.754 -26.432  0.00  0.00    +0.000 N 
ATOM     13  C   UNL     1     -47.278  -3.811 -27.343  0.00  0.00    +0.000 A 
ATOM     14  O   UNL     1     -47.594  -2.658 -26.953  0.00  0.00    +0.000 OA
ATOM     15  N   UNL     1     -47.304  -4.103 -28.670  0.00  0.00    +0.000 NA
ATOM     16  C   UNL     1     -46.966  -5.338 -29.126  0.00  0.00    +0.000 A 
ATOM     17  N   UNL     1     -46.989  -5.638 -30.461  0.00  0.00    +0.000 N 
ATOM     18  C   UNL     1     -46.379  -8.781 -34.176  0.00  0.00    +0.000 C 
ATOM     19  H   UNL     1     -46.900  -4.514 -25.477  0.00  0.00    +0.000 HD
ENDROOT
BRANCH  17  20
ATOM     20  C   UNL     1     -47.370  -4.596 -31.420  0.00  0.00    +0.000 C 
BRANCH  20  21
ATOM     21  C   UNL     1     -46.223  -3.619 -31.635  0.00  0.00    +0.000 C 
BRANCH  21  22
ATOM     22  O   UNL     1     -46.581  -2.349 -31.173  0.00  0.00    +0.000 OA
ATOM     23  H   UNL     1     -46.653  -2.366 -30.205  0.00  0.00    +0.000 HD
ENDBRANCH  21  22
BRANCH  21  24
ATOM     24  C   UNL     1     -45.849  -3.574 -33.119  0.00  0.00    +0.000 C 
BRANCH  24  25
ATOM     25  O   UNL     1     -46.761  -2.807 -33.850  0.00  0.00    +0.000 OA
ATOM     26  H   UNL     1     -47.186  -3.361 -34.522  0.00  0.00    +0.000 HD
ENDBRANCH  24  25
BRANCH  24  27
ATOM     27  C   UNL     1     -44.416  -3.100 -33.370  0.00  0.00    +0.000 C 
BRANCH  27  28
ATOM     28  O   UNL     1     -43.633  -3.312 -32.234  0.00  0.00    +0.000 OA
ATOM     29  H   UNL     1     -44.068  -2.915 -31.463  0.00  0.00    +0.000 HD
ENDBRANCH  27  28
BRANCH  27  30
ATOM     30  C   UNL     1     -44.350  -1.639 -33.790  0.00  0.00    +0.000 C 
BRANCH  30  31
ATOM     31  O   UNL     1     -43.022  -1.214 -33.817  0.00  0.00    +0.000 OA
ATOM     32  H   UNL     1     -42.988  -0.250 -33.719  0.00  0.00    +0.000 HD
ENDBRANCH  30  31
ENDBRANCH  27  30
ENDBRANCH  24  27
ENDBRANCH  21  24
ENDBRANCH  20  21
ENDBRANCH  17  20
TORSDOF 9
ENDMDL
