MODEL 1
REMARK VINA RESULT:      -6.2      0.000      0.000
REMARK  Name = ZINC000014182987 MolPort-009-650-068
REMARK  2 active torsions:
REMARK  status: ('A' for Active; 'I' for Inactive)
REMARK    1  A    between atoms: C_2  and  C_5
REMARK    2  A    between atoms: C_20  and  C_22
REMARK                            x       y       z     vdW  Elec       q    Type
REMARK                         _______ _______ _______ _____ _____    ______ ____
ROOT
ATOM      1  O   UNL     1     -47.263  -4.764 -34.700  0.00  0.00    +0.000 OA
ATOM      2  C   UNL     1     -46.669  -5.097 -33.640  0.00  0.00    +0.000 C 
ATOM      3  N   UNL     1     -46.931  -6.394 -33.088  0.00  0.00    +0.000 N 
ATOM      4  H   UNL     1     -47.230  -7.098 -33.707  0.00  0.00    +0.000 HD
ATOM      5  C   UNL     1     -46.793  -6.746 -31.708  0.00  0.00    +0.000 A 
ATOM      6  N   UNL     1     -47.476  -6.157 -30.702  0.00  0.00    +0.000 NA
ATOM      7  N   UNL     1     -47.216  -6.695 -29.512  0.00  0.00    +0.000 NA
ATOM      8  C   UNL     1     -46.336  -7.720 -29.566  0.00  0.00    +0.000 A 
ATOM      9  S   UNL     1     -45.834  -8.010 -31.154  0.00  0.00    +0.000 S 
ENDROOT
BRANCH   2  10
ATOM     10  C   UNL     1     -45.672  -4.177 -33.042  0.00  0.00    +0.000 A 
ATOM     11  C   UNL     1     -46.123  -3.158 -32.194  0.00  0.00    +0.000 A 
ATOM     12  C   UNL     1     -45.212  -2.290 -31.592  0.00  0.00    +0.000 A 
ATOM     13  O   UNL     1     -45.625  -1.374 -30.835  0.00  0.00    +0.000 OA
ATOM     14  N   UNL     1     -43.880  -2.432 -31.820  0.00  0.00    +0.000 N 
ATOM     15  C   UNL     1     -43.396  -3.409 -32.629  0.00  0.00    +0.000 A 
ATOM     16  C   UNL     1     -42.017  -3.515 -32.839  0.00  0.00    +0.000 A 
ATOM     17  C   UNL     1     -41.509  -4.510 -33.678  0.00  0.00    +0.000 A 
ATOM     18  C   UNL     1     -42.377  -5.401 -34.313  0.00  0.00    +0.000 A 
ATOM     19  C   UNL     1     -43.756  -5.302 -34.110  0.00  0.00    +0.000 A 
ATOM     20  C   UNL     1     -44.283  -4.314 -33.264  0.00  0.00    +0.000 A 
ATOM     21  H   UNL     1     -43.250  -1.811 -31.386  0.00  0.00    +0.000 HD
ENDBRANCH   2  10
BRANCH   8  22
ATOM     22  C   UNL     1     -45.902  -8.476 -28.348  0.00  0.00    +0.000 C 
ATOM     23  C   UNL     1     -46.260  -7.763 -27.039  0.00  0.00    +0.000 C 
ATOM     24  C   UNL     1     -45.286  -6.627 -26.724  0.00  0.00    +0.000 C 
ATOM     25  C   UNL     1     -43.856  -7.150 -26.697  0.00  0.00    +0.000 C 
ATOM     26  C   UNL     1     -43.493  -7.740 -28.055  0.00  0.00    +0.000 C 
ATOM     27  C   UNL     1     -44.428  -8.899 -28.398  0.00  0.00    +0.000 C 
ENDBRANCH   8  22
TORSDOF 2
ENDMDL
MODEL 2
REMARK VINA RESULT:      -5.9     12.491     15.485
REMARK  Name = ZINC000014182987 MolPort-009-650-068
REMARK  2 active torsions:
REMARK  status: ('A' for Active; 'I' for Inactive)
REMARK    1  A    between atoms: C_2  and  C_5
REMARK    2  A    between atoms: C_20  and  C_22
REMARK                            x       y       z     vdW  Elec       q    Type
REMARK                         _______ _______ _______ _____ _____    ______ ____
ROOT
ATOM      1  O   UNL     1     -40.141 -18.890 -25.512  0.00  0.00    +0.000 OA
ATOM      2  C   UNL     1     -41.078 -18.647 -24.707  0.00  0.00    +0.000 C 
ATOM      3  N   UNL     1     -40.769 -18.527 -23.312  0.00  0.00    +0.000 N 
ATOM      4  H   UNL     1     -39.854 -18.253 -23.073  0.00  0.00    +0.000 HD
ATOM      5  C   UNL     1     -41.683 -18.772 -22.240  0.00  0.00    +0.000 A 
ATOM      6  N   UNL     1     -42.298 -19.955 -22.021  0.00  0.00    +0.000 NA
ATOM      7  N   UNL     1     -43.060 -19.952 -20.930  0.00  0.00    +0.000 NA
ATOM      8  C   UNL     1     -43.048 -18.773 -20.268  0.00  0.00    +0.000 A 
ATOM      9  S   UNL     1     -42.046 -17.651 -21.042  0.00  0.00    +0.000 S 
ENDROOT
BRANCH   2  10
ATOM     10  C   UNL     1     -42.448 -18.422 -25.228  0.00  0.00    +0.000 A 
ATOM     11  C   UNL     1     -43.349 -19.495 -25.234  0.00  0.00    +0.000 A 
ATOM     12  C   UNL     1     -44.653 -19.315 -25.692  0.00  0.00    +0.000 A 
ATOM     13  O   UNL     1     -45.455 -20.285 -25.699  0.00  0.00    +0.000 OA
ATOM     14  N   UNL     1     -45.062 -18.096 -26.128  0.00  0.00    +0.000 N 
ATOM     15  C   UNL     1     -44.227 -17.025 -26.135  0.00  0.00    +0.000 A 
ATOM     16  C   UNL     1     -44.689 -15.789 -26.598  0.00  0.00    +0.000 A 
ATOM     17  C   UNL     1     -43.835 -14.683 -26.619  0.00  0.00    +0.000 A 
ATOM     18  C   UNL     1     -42.515 -14.809 -26.180  0.00  0.00    +0.000 A 
ATOM     19  C   UNL     1     -42.045 -16.041 -25.716  0.00  0.00    +0.000 A 
ATOM     20  C   UNL     1     -42.892 -17.159 -25.681  0.00  0.00    +0.000 A 
ATOM     21  H   UNL     1     -45.987 -17.985 -26.448  0.00  0.00    +0.000 HD
ENDBRANCH   2  10
BRANCH   8  22
ATOM     22  C   UNL     1     -43.828 -18.544 -19.010  0.00  0.00    +0.000 C 
ATOM     23  C   UNL     1     -44.964 -19.555 -18.816  0.00  0.00    +0.000 C 
ATOM     24  C   UNL     1     -46.182 -19.215 -19.676  0.00  0.00    +0.000 C 
ATOM     25  C   UNL     1     -46.650 -17.794 -19.392  0.00  0.00    +0.000 C 
ATOM     26  C   UNL     1     -45.536 -16.806 -19.715  0.00  0.00    +0.000 C 
ATOM     27  C   UNL     1     -44.305 -17.094 -18.856  0.00  0.00    +0.000 C 
ENDBRANCH   8  22
TORSDOF 2
ENDMDL
MODEL 3
REMARK VINA RESULT:      -5.8      3.413      5.761
REMARK  Name = ZINC000014182987 MolPort-009-650-068
REMARK  2 active torsions:
REMARK  status: ('A' for Active; 'I' for Inactive)
REMARK    1  A    between atoms: C_2  and  C_5
REMARK    2  A    between atoms: C_20  and  C_22
REMARK                            x       y       z     vdW  Elec       q    Type
REMARK                         _______ _______ _______ _____ _____    ______ ____
ROOT
ATOM      1  O   UNL     1     -42.016  -5.407 -30.264  0.00  0.00    +0.000 OA
ATOM      2  C   UNL     1     -42.986  -5.509 -31.061  0.00  0.00    +0.000 C 
ATOM      3  N   UNL     1     -43.165  -6.743 -31.767  0.00  0.00    +0.000 N 
ATOM      4  H   UNL     1     -42.803  -7.559 -31.353  0.00  0.00    +0.000 HD
ATOM      5  C   UNL     1     -43.828  -6.884 -33.027  0.00  0.00    +0.000 A 
ATOM      6  N   UNL     1     -43.438  -6.268 -34.164  0.00  0.00    +0.000 NA
ATOM      7  N   UNL     1     -44.181  -6.599 -35.218  0.00  0.00    +0.000 NA
ATOM      8  C   UNL     1     -45.157  -7.489 -34.929  0.00  0.00    +0.000 A 
ATOM      9  S   UNL     1     -45.128  -7.916 -33.293  0.00  0.00    +0.000 S 
ENDROOT
BRANCH   2  10
ATOM     10  C   UNL     1     -43.947  -4.387 -31.188  0.00  0.00    +0.000 A 
ATOM     11  C   UNL     1     -45.224  -4.529 -30.629  0.00  0.00    +0.000 A 
ATOM     12  C   UNL     1     -46.145  -3.486 -30.706  0.00  0.00    +0.000 A 
ATOM     13  O   UNL     1     -47.292  -3.623 -30.205  0.00  0.00    +0.000 OA
ATOM     14  N   UNL     1     -45.808  -2.320 -31.317  0.00  0.00    +0.000 N 
ATOM     15  C   UNL     1     -44.581  -2.133 -31.868  0.00  0.00    +0.000 A 
ATOM     16  C   UNL     1     -44.280  -0.919 -32.492  0.00  0.00    +0.000 A 
ATOM     17  C   UNL     1     -43.024  -0.720 -33.071  0.00  0.00    +0.000 A 
ATOM     18  C   UNL     1     -42.065  -1.735 -33.031  0.00  0.00    +0.000 A 
ATOM     19  C   UNL     1     -42.358  -2.952 -32.410  0.00  0.00    +0.000 A 
ATOM     20  C   UNL     1     -43.612  -3.166 -31.816  0.00  0.00    +0.000 A 
ATOM     21  H   UNL     1     -46.471  -1.592 -31.362  0.00  0.00    +0.000 HD
ENDBRANCH   2  10
BRANCH   8  22
ATOM     22  C   UNL     1     -46.110  -8.007 -35.962  0.00  0.00    +0.000 C 
ATOM     23  C   UNL     1     -46.662  -9.397 -35.626  0.00  0.00    +0.000 C 
ATOM     24  C   UNL     1     -45.656 -10.503 -35.948  0.00  0.00    +0.000 C 
ATOM     25  C   UNL     1     -45.224 -10.416 -37.406  0.00  0.00    +0.000 C 
ATOM     26  C   UNL     1     -44.566  -9.068 -37.673  0.00  0.00    +0.000 C 
ATOM     27  C   UNL     1     -45.549  -7.932 -37.388  0.00  0.00    +0.000 C 
ENDBRANCH   8  22
TORSDOF 2
ENDMDL
