MODEL 1
REMARK VINA RESULT:      -5.8      0.000      0.000
REMARK  Name = ZINC000005372519 ZINC05372519 PubChem-92261928
REMARK  9 active torsions:
REMARK  status: ('A' for Active; 'I' for Inactive)
REMARK    1  A    between atoms: N_14  and  C_20
REMARK    2  A    between atoms: C_20  and  C_21
REMARK    3  A    between atoms: C_21  and  O_22
REMARK    4  A    between atoms: C_21  and  C_24
REMARK    5  A    between atoms: C_24  and  O_25
REMARK    6  A    between atoms: C_24  and  C_27
REMARK    7  A    between atoms: C_27  and  O_28
REMARK    8  A    between atoms: C_27  and  C_30
REMARK    9  A    between atoms: C_30  and  O_31
REMARK                            x       y       z     vdW  Elec       q    Type
REMARK                         _______ _______ _______ _____ _____    ______ ____
ROOT
ATOM      1  C   UNL     1     -46.273 -16.519 -18.690  0.00  0.00    +0.000 C 
ATOM      2  C   UNL     1     -46.000 -16.616 -20.153  0.00  0.00    +0.000 A 
ATOM      3  C   UNL     1     -46.071 -15.456 -20.927  0.00  0.00    +0.000 A 
ATOM      4  C   UNL     1     -45.820 -15.502 -22.300  0.00  0.00    +0.000 A 
ATOM      5  C   UNL     1     -45.918 -14.331 -23.042  0.00  0.00    +0.000 A 
ATOM      6  C   UNL     1     -45.692 -14.360 -24.413  0.00  0.00    +0.000 A 
ATOM      7  C   UNL     1     -45.797 -13.217 -25.216  0.00  0.00    +0.000 A 
ATOM      8  O   UNL     1     -46.093 -12.100 -24.712  0.00  0.00    +0.000 OA
ATOM      9  N   UNL     1     -45.584 -13.312 -26.556  0.00  0.00    +0.000 N 
ATOM     10  C   UNL     1     -45.269 -14.485 -27.170  0.00  0.00    +0.000 A 
ATOM     11  O   UNL     1     -45.088 -14.507 -28.415  0.00  0.00    +0.000 OA
ATOM     12  C   UNL     1     -45.145 -15.664 -26.434  0.00  0.00    +0.000 A 
ATOM     13  C   UNL     1     -45.339 -15.650 -25.048  0.00  0.00    +0.000 A 
ATOM     14  N   UNL     1     -45.220 -16.782 -24.278  0.00  0.00    +0.000 N 
ATOM     15  C   UNL     1     -45.481 -16.729 -22.927  0.00  0.00    +0.000 A 
ATOM     16  C   UNL     1     -45.432 -17.890 -22.135  0.00  0.00    +0.000 A 
ATOM     17  C   UNL     1     -45.685 -17.842 -20.762  0.00  0.00    +0.000 A 
ATOM     18  C   UNL     1     -45.599 -19.106 -19.977  0.00  0.00    +0.000 C 
ATOM     19  H   UNL     1     -45.658 -12.497 -27.104  0.00  0.00    +0.000 HD
ENDROOT
BRANCH  14  20
ATOM     20  C   UNL     1     -44.837 -18.055 -24.913  0.00  0.00    +0.000 C 
BRANCH  20  21
ATOM     21  C   UNL     1     -43.347 -18.107 -25.283  0.00  0.00    +0.000 C 
BRANCH  21  22
ATOM     22  O   UNL     1     -42.588 -18.587 -24.212  0.00  0.00    +0.000 OA
ATOM     23  H   UNL     1     -42.999 -19.392 -23.860  0.00  0.00    +0.000 HD
ENDBRANCH  21  22
BRANCH  21  24
ATOM     24  C   UNL     1     -43.093 -18.936 -26.543  0.00  0.00    +0.000 C 
BRANCH  24  25
ATOM     25  O   UNL     1     -44.255 -18.989 -27.319  0.00  0.00    +0.000 OA
ATOM     26  H   UNL     1     -44.306 -18.200 -27.880  0.00  0.00    +0.000 HD
ENDBRANCH  24  25
BRANCH  24  27
ATOM     27  C   UNL     1     -41.938 -18.365 -27.367  0.00  0.00    +0.000 C 
BRANCH  27  28
ATOM     28  O   UNL     1     -40.743 -18.429 -26.647  0.00  0.00    +0.000 OA
ATOM     29  H   UNL     1     -40.121 -19.018 -27.102  0.00  0.00    +0.000 HD
ENDBRANCH  27  28
BRANCH  27  30
ATOM     30  C   UNL     1     -42.216 -16.925 -27.766  0.00  0.00    +0.000 C 
BRANCH  30  31
ATOM     31  O   UNL     1     -42.995 -16.895 -28.922  0.00  0.00    +0.000 OA
ATOM     32  H   UNL     1     -42.859 -17.713 -29.426  0.00  0.00    +0.000 HD
ENDBRANCH  30  31
ENDBRANCH  27  30
ENDBRANCH  24  27
ENDBRANCH  21  24
ENDBRANCH  20  21
ENDBRANCH  14  20
TORSDOF 9
ENDMDL
MODEL 2
REMARK VINA RESULT:      -5.7      2.008      4.992
REMARK  Name = ZINC000005372519 ZINC05372519 PubChem-92261928
REMARK  9 active torsions:
REMARK  status: ('A' for Active; 'I' for Inactive)
REMARK    1  A    between atoms: N_14  and  C_20
REMARK    2  A    between atoms: C_20  and  C_21
REMARK    3  A    between atoms: C_21  and  O_22
REMARK    4  A    between atoms: C_21  and  C_24
REMARK    5  A    between atoms: C_24  and  O_25
REMARK    6  A    between atoms: C_24  and  C_27
REMARK    7  A    between atoms: C_27  and  O_28
REMARK    8  A    between atoms: C_27  and  C_30
REMARK    9  A    between atoms: C_30  and  O_31
REMARK                            x       y       z     vdW  Elec       q    Type
REMARK                         _______ _______ _______ _____ _____    ______ ____
ROOT
ATOM      1  C   UNL     1     -46.076 -14.975 -18.094  0.00  0.00    +0.000 C 
ATOM      2  C   UNL     1     -46.000 -15.304 -19.546  0.00  0.00    +0.000 A 
ATOM      3  C   UNL     1     -45.413 -16.512 -19.929  0.00  0.00    +0.000 A 
ATOM      4  C   UNL     1     -45.324 -16.861 -21.279  0.00  0.00    +0.000 A 
ATOM      5  C   UNL     1     -44.717 -18.062 -21.626  0.00  0.00    +0.000 A 
ATOM      6  C   UNL     1     -44.600 -18.418 -22.964  0.00  0.00    +0.000 A 
ATOM      7  C   UNL     1     -43.980 -19.604 -23.375  0.00  0.00    +0.000 A 
ATOM      8  O   UNL     1     -43.509 -20.412 -22.529  0.00  0.00    +0.000 OA
ATOM      9  N   UNL     1     -43.878 -19.888 -24.701  0.00  0.00    +0.000 N 
ATOM     10  C   UNL     1     -44.355 -19.060 -25.670  0.00  0.00    +0.000 A 
ATOM     11  O   UNL     1     -44.225 -19.378 -26.880  0.00  0.00    +0.000 OA
ATOM     12  C   UNL     1     -44.987 -17.861 -25.336  0.00  0.00    +0.000 A 
ATOM     13  C   UNL     1     -45.141 -17.500 -23.992  0.00  0.00    +0.000 A 
ATOM     14  N   UNL     1     -45.764 -16.335 -23.612  0.00  0.00    +0.000 N 
ATOM     15  C   UNL     1     -45.836 -15.995 -22.280  0.00  0.00    +0.000 A 
ATOM     16  C   UNL     1     -46.407 -14.775 -21.875  0.00  0.00    +0.000 A 
ATOM     17  C   UNL     1     -46.494 -14.428 -20.525  0.00  0.00    +0.000 A 
ATOM     18  C   UNL     1     -47.127 -13.127 -20.163  0.00  0.00    +0.000 C 
ATOM     19  H   UNL     1     -43.442 -20.729 -24.971  0.00  0.00    +0.000 HD
ENDROOT
BRANCH  14  20
ATOM     20  C   UNL     1     -46.328 -15.444 -24.640  0.00  0.00    +0.000 C 
BRANCH  20  21
ATOM     21  C   UNL     1     -45.495 -14.169 -24.839  0.00  0.00    +0.000 C 
BRANCH  21  22
ATOM     22  O   UNL     1     -44.210 -14.482 -25.289  0.00  0.00    +0.000 OA
ATOM     23  H   UNL     1     -44.024 -13.990 -26.104  0.00  0.00    +0.000 HD
ENDBRANCH  21  22
BRANCH  21  24
ATOM     24  C   UNL     1     -46.174 -13.175 -25.783  0.00  0.00    +0.000 C 
BRANCH  24  25
ATOM     25  O   UNL     1     -46.166 -11.898 -25.214  0.00  0.00    +0.000 OA
ATOM     26  H   UNL     1     -46.281 -11.233 -25.910  0.00  0.00    +0.000 HD
ENDBRANCH  24  25
BRANCH  24  27
ATOM     27  C   UNL     1     -45.491 -13.144 -27.151  0.00  0.00    +0.000 C 
BRANCH  27  28
ATOM     28  O   UNL     1     -44.699 -12.001 -27.279  0.00  0.00    +0.000 OA
ATOM     29  H   UNL     1     -44.001 -12.014 -26.607  0.00  0.00    +0.000 HD
ENDBRANCH  27  28
BRANCH  27  30
ATOM     30  C   UNL     1     -46.518 -13.181 -28.271  0.00  0.00    +0.000 C 
BRANCH  30  31
ATOM     31  O   UNL     1     -47.754 -12.744 -27.796  0.00  0.00    +0.000 OA
ATOM     32  H   UNL     1     -48.238 -13.494 -27.414  0.00  0.00    +0.000 HD
ENDBRANCH  30  31
ENDBRANCH  27  30
ENDBRANCH  24  27
ENDBRANCH  21  24
ENDBRANCH  20  21
ENDBRANCH  14  20
TORSDOF 9
ENDMDL
MODEL 3
REMARK VINA RESULT:      -5.6      7.644     10.853
REMARK  Name = ZINC000005372519 ZINC05372519 PubChem-92261928
REMARK  9 active torsions:
REMARK  status: ('A' for Active; 'I' for Inactive)
REMARK    1  A    between atoms: N_14  and  C_20
REMARK    2  A    between atoms: C_20  and  C_21
REMARK    3  A    between atoms: C_21  and  O_22
REMARK    4  A    between atoms: C_21  and  C_24
REMARK    5  A    between atoms: C_24  and  O_25
REMARK    6  A    between atoms: C_24  and  C_27
REMARK    7  A    between atoms: C_27  and  O_28
REMARK    8  A    between atoms: C_27  and  C_30
REMARK    9  A    between atoms: C_30  and  O_31
REMARK                            x       y       z     vdW  Elec       q    Type
REMARK                         _______ _______ _______ _____ _____    ______ ____
ROOT
ATOM      1  C   UNL     1     -47.378  -1.647 -23.294  0.00  0.00    +0.000 C 
ATOM      2  C   UNL     1     -47.224  -2.904 -24.082  0.00  0.00    +0.000 A 
ATOM      3  C   UNL     1     -47.287  -2.833 -25.475  0.00  0.00    +0.000 A 
ATOM      4  C   UNL     1     -47.145  -3.986 -26.251  0.00  0.00    +0.000 A 
ATOM      5  C   UNL     1     -47.232  -3.882 -27.634  0.00  0.00    +0.000 A 
ATOM      6  C   UNL     1     -47.114  -5.020 -28.423  0.00  0.00    +0.000 A 
ATOM      7  C   UNL     1     -47.213  -4.981 -29.819  0.00  0.00    +0.000 A 
ATOM      8  O   UNL     1     -47.404  -3.890 -30.421  0.00  0.00    +0.000 OA
ATOM      9  N   UNL     1     -47.109  -6.132 -30.536  0.00  0.00    +0.000 N 
ATOM     10  C   UNL     1     -46.912  -7.346 -29.954  0.00  0.00    +0.000 A 
ATOM     11  O   UNL     1     -46.828  -8.375 -30.673  0.00  0.00    +0.000 OA
ATOM     12  C   UNL     1     -46.801  -7.463 -28.568  0.00  0.00    +0.000 A 
ATOM     13  C   UNL     1     -46.887  -6.324 -27.758  0.00  0.00    +0.000 A 
ATOM     14  N   UNL     1     -46.775  -6.386 -26.390  0.00  0.00    +0.000 N 
ATOM     15  C   UNL     1     -46.928  -5.245 -25.633  0.00  0.00    +0.000 A 
ATOM     16  C   UNL     1     -46.886  -5.298 -24.229  0.00  0.00    +0.000 A 
ATOM     17  C   UNL     1     -47.030  -4.145 -23.455  0.00  0.00    +0.000 A 
ATOM     18  C   UNL     1     -46.958  -4.268 -21.971  0.00  0.00    +0.000 C 
ATOM     19  H   UNL     1     -47.178  -6.084 -31.517  0.00  0.00    +0.000 HD
ENDROOT
BRANCH  14  20
ATOM     20  C   UNL     1     -46.517  -7.682 -25.740  0.00  0.00    +0.000 C 
BRANCH  20  21
ATOM     21  C   UNL     1     -45.049  -8.118 -25.851  0.00  0.00    +0.000 C 
BRANCH  21  22
ATOM     22  O   UNL     1     -44.354  -7.821 -24.676  0.00  0.00    +0.000 OA
ATOM     23  H   UNL     1     -44.752  -7.044 -24.253  0.00  0.00    +0.000 HD
ENDBRANCH  21  22
BRANCH  21  24
ATOM     24  C   UNL     1     -44.911  -9.600 -26.203  0.00  0.00    +0.000 C 
BRANCH  24  25
ATOM     25  O   UNL     1     -43.910 -10.182 -25.419  0.00  0.00    +0.000 OA
ATOM     26  H   UNL     1     -43.800  -9.671 -24.603  0.00  0.00    +0.000 HD
ENDBRANCH  24  25
BRANCH  24  27
ATOM     27  C   UNL     1     -46.231 -10.349 -26.011  0.00  0.00    +0.000 C 
BRANCH  27  28
ATOM     28  O   UNL     1     -46.164 -11.181 -24.891  0.00  0.00    +0.000 OA
ATOM     29  H   UNL     1     -47.030 -11.590 -24.740  0.00  0.00    +0.000 HD
ENDBRANCH  27  28
BRANCH  27  30
ATOM     30  C   UNL     1     -46.569 -11.175 -27.240  0.00  0.00    +0.000 C 
BRANCH  30  31
ATOM     31  O   UNL     1     -47.733 -11.910 -27.013  0.00  0.00    +0.000 OA
ATOM     32  H   UNL     1     -47.507 -12.846 -26.896  0.00  0.00    +0.000 HD
ENDBRANCH  30  31
ENDBRANCH  27  30
ENDBRANCH  24  27
ENDBRANCH  21  24
ENDBRANCH  20  21
ENDBRANCH  14  20
TORSDOF 9
ENDMDL
