MODEL 1
REMARK VINA RESULT:      -7.0      0.000      0.000
REMARK  Name = ZINC000031811577
REMARK  1 active torsions:
REMARK  status: ('A' for Active; 'I' for Inactive)
REMARK    1  A    between atoms: C_7  and  C_24
REMARK                            x       y       z     vdW  Elec       q    Type
REMARK                         _______ _______ _______ _____ _____    ______ ____
ROOT
ATOM      1  C   UNL     1     -45.132 -18.492 -22.275  0.00  0.00    +0.000 C 
ATOM      2  C   UNL     1     -45.412 -17.029 -22.309  0.00  0.00    +0.000 A 
ATOM      3  N   UNL     1     -45.376 -16.320 -23.449  0.00  0.00    +0.000 NA
ATOM      4  N   UNL     1     -45.734 -15.078 -23.171  0.00  0.00    +0.000 N 
ATOM      5  C   UNL     1     -46.051 -14.983 -21.858  0.00  0.00    +0.000 A 
ATOM      6  C   UNL     1     -45.794 -16.214 -21.241  0.00  0.00    +0.000 A 
ATOM      7  C   UNL     1     -45.967 -16.624 -19.786  0.00  0.00    +0.000 C 
ATOM      8  S   UNL     1     -45.707 -15.249 -18.630  0.00  0.00    +0.000 S 
ATOM      9  C   UNL     1     -47.370 -14.658 -18.989  0.00  0.00    +0.000 C 
ATOM     10  C   UNL     1     -47.290 -13.600 -20.024  0.00  0.00    +0.000 C 
ATOM     11  O   UNL     1     -47.756 -12.463 -19.757  0.00  0.00    +0.000 OA
ATOM     12  N   UNL     1     -46.710 -13.826 -21.312  0.00  0.00    +0.000 N 
ATOM     13  H   UNL     1     -46.773 -13.061 -21.930  0.00  0.00    +0.000 HD
ATOM     14  C   UNL     1     -45.815 -14.062 -24.184  0.00  0.00    +0.000 A 
ATOM     15  N   UNL     1     -46.282 -14.383 -25.430  0.00  0.00    +0.000 NA
ATOM     16  C   UNL     1     -46.345 -13.456 -26.440  0.00  0.00    +0.000 A 
ATOM     17  N   UNL     1     -45.920 -12.175 -26.231  0.00  0.00    +0.000 NA
ATOM     18  C   UNL     1     -45.438 -11.856 -25.007  0.00  0.00    +0.000 A 
ATOM     19  N   UNL     1     -44.941 -10.672 -24.631  0.00  0.00    +0.000 N 
ATOM     20  C   UNL     1     -44.555 -10.907 -23.349  0.00  0.00    +0.000 A 
ATOM     21  N   UNL     1     -44.789 -12.181 -22.929  0.00  0.00    +0.000 NA
ATOM     22  C   UNL     1     -45.360 -12.752 -23.998  0.00  0.00    +0.000 A 
ATOM     23  H   UNL     1     -44.873  -9.839 -25.153  0.00  0.00    +0.000 HD
ENDROOT
BRANCH   7  24
ATOM     24  C   UNL     1     -45.084 -17.772 -19.372  0.00  0.00    +0.000 A 
ATOM     25  C   UNL     1     -45.666 -19.031 -19.145  0.00  0.00    +0.000 A 
ATOM     26  F   UNL     1     -47.005 -19.204 -19.269  0.00  0.00    +0.000 F 
ATOM     27  C   UNL     1     -44.870 -20.113 -18.759  0.00  0.00    +0.000 A 
ATOM     28  C   UNL     1     -43.493 -19.949 -18.594  0.00  0.00    +0.000 A 
ATOM     29  C   UNL     1     -42.907 -18.701 -18.813  0.00  0.00    +0.000 A 
ATOM     30  C   UNL     1     -43.693 -17.613 -19.199  0.00  0.00    +0.000 A 
ATOM     31  F   UNL     1     -43.101 -16.407 -19.395  0.00  0.00    +0.000 F 
ENDBRANCH   7  24
TORSDOF 1
ENDMDL
MODEL 2
REMARK VINA RESULT:      -6.8     10.598     13.696
REMARK  Name = ZINC000031811577
REMARK  1 active torsions:
REMARK  status: ('A' for Active; 'I' for Inactive)
REMARK    1  A    between atoms: C_7  and  C_24
REMARK                            x       y       z     vdW  Elec       q    Type
REMARK                         _______ _______ _______ _____ _____    ______ ____
ROOT
ATOM      1  C   UNL     1     -43.139  -7.015 -27.882  0.00  0.00    +0.000 C 
ATOM      2  C   UNL     1     -43.451  -6.237 -29.114  0.00  0.00    +0.000 A 
ATOM      3  N   UNL     1     -42.511  -5.552 -29.785  0.00  0.00    +0.000 NA
ATOM      4  N   UNL     1     -43.073  -5.030 -30.861  0.00  0.00    +0.000 N 
ATOM      5  C   UNL     1     -44.371  -5.412 -30.922  0.00  0.00    +0.000 A 
ATOM      6  C   UNL     1     -44.680  -6.147 -29.770  0.00  0.00    +0.000 A 
ATOM      7  C   UNL     1     -45.997  -6.785 -29.352  0.00  0.00    +0.000 C 
ATOM      8  S   UNL     1     -47.445  -5.868 -29.949  0.00  0.00    +0.000 S 
ATOM      9  C   UNL     1     -47.232  -6.624 -31.569  0.00  0.00    +0.000 C 
ATOM     10  C   UNL     1     -46.477  -5.692 -32.438  0.00  0.00    +0.000 C 
ATOM     11  O   UNL     1     -47.003  -5.317 -33.517  0.00  0.00    +0.000 OA
ATOM     12  N   UNL     1     -45.172  -5.210 -32.100  0.00  0.00    +0.000 N 
ATOM     13  H   UNL     1     -44.753  -4.645 -32.789  0.00  0.00    +0.000 HD
ATOM     14  C   UNL     1     -42.328  -4.246 -31.807  0.00  0.00    +0.000 A 
ATOM     15  N   UNL     1     -41.041  -4.596 -32.113  0.00  0.00    +0.000 NA
ATOM     16  C   UNL     1     -40.278  -3.858 -32.983  0.00  0.00    +0.000 A 
ATOM     17  N   UNL     1     -40.785  -2.729 -33.562  0.00  0.00    +0.000 NA
ATOM     18  C   UNL     1     -42.051  -2.367 -33.248  0.00  0.00    +0.000 A 
ATOM     19  N   UNL     1     -42.696  -1.277 -33.681  0.00  0.00    +0.000 N 
ATOM     20  C   UNL     1     -43.888  -1.363 -33.031  0.00  0.00    +0.000 A 
ATOM     21  N   UNL     1     -43.994  -2.451 -32.220  0.00  0.00    +0.000 NA
ATOM     22  C   UNL     1     -42.819  -3.073 -32.390  0.00  0.00    +0.000 A 
ATOM     23  H   UNL     1     -42.387  -0.587 -34.312  0.00  0.00    +0.000 HD
ENDROOT
BRANCH   7  24
ATOM     24  C   UNL     1     -46.130  -6.975 -27.863  0.00  0.00    +0.000 A 
ATOM     25  C   UNL     1     -46.143  -8.280 -27.343  0.00  0.00    +0.000 A 
ATOM     26  F   UNL     1     -46.064  -9.353 -28.169  0.00  0.00    +0.000 F 
ATOM     27  C   UNL     1     -46.266  -8.486 -25.966  0.00  0.00    +0.000 A 
ATOM     28  C   UNL     1     -46.381  -7.397 -25.100  0.00  0.00    +0.000 A 
ATOM     29  C   UNL     1     -46.374  -6.096 -25.609  0.00  0.00    +0.000 A 
ATOM     30  C   UNL     1     -46.251  -5.879 -26.983  0.00  0.00    +0.000 A 
ATOM     31  F   UNL     1     -46.258  -4.607 -27.454  0.00  0.00    +0.000 F 
ENDBRANCH   7  24
TORSDOF 1
ENDMDL
MODEL 3
REMARK VINA RESULT:      -6.7     11.009     15.498
REMARK  Name = ZINC000031811577
REMARK  1 active torsions:
REMARK  status: ('A' for Active; 'I' for Inactive)
REMARK    1  A    between atoms: C_7  and  C_24
REMARK                            x       y       z     vdW  Elec       q    Type
REMARK                         _______ _______ _______ _____ _____    ______ ____
ROOT
ATOM      1  C   UNL     1     -45.638  -3.062 -30.657  0.00  0.00    +0.000 C 
ATOM      2  C   UNL     1     -45.441  -4.524 -30.863  0.00  0.00    +0.000 A 
ATOM      3  N   UNL     1     -45.830  -5.434 -29.955  0.00  0.00    +0.000 NA
ATOM      4  N   UNL     1     -45.586  -6.636 -30.447  0.00  0.00    +0.000 N 
ATOM      5  C   UNL     1     -45.081  -6.517 -31.699  0.00  0.00    +0.000 A 
ATOM      6  C   UNL     1     -44.908  -5.158 -31.988  0.00  0.00    +0.000 A 
ATOM      7  C   UNL     1     -44.363  -4.496 -33.245  0.00  0.00    +0.000 C 
ATOM      8  S   UNL     1     -43.115  -5.507 -34.090  0.00  0.00    +0.000 S 
ATOM      9  C   UNL     1     -44.434  -6.504 -34.806  0.00  0.00    +0.000 C 
ATOM     10  C   UNL     1     -44.626  -7.713 -33.973  0.00  0.00    +0.000 C 
ATOM     11  O   UNL     1     -44.505  -8.841 -34.516  0.00  0.00    +0.000 OA
ATOM     12  N   UNL     1     -44.951  -7.647 -32.581  0.00  0.00    +0.000 N 
ATOM     13  H   UNL     1     -45.113  -8.520 -32.155  0.00  0.00    +0.000 HD
ATOM     14  C   UNL     1     -45.906  -7.837 -29.724  0.00  0.00    +0.000 A 
ATOM     15  N   UNL     1     -47.051  -7.894 -28.979  0.00  0.00    +0.000 NA
ATOM     16  C   UNL     1     -47.381  -9.005 -28.244  0.00  0.00    +0.000 A 
ATOM     17  N   UNL     1     -46.553 -10.091 -28.222  0.00  0.00    +0.000 NA
ATOM     18  C   UNL     1     -45.409 -10.033 -28.942  0.00  0.00    +0.000 A 
ATOM     19  N   UNL     1     -44.463 -10.977 -29.008  0.00  0.00    +0.000 N 
ATOM     20  C   UNL     1     -43.525 -10.399 -29.806  0.00  0.00    +0.000 A 
ATOM     21  N   UNL     1     -43.855  -9.146 -30.222  0.00  0.00    +0.000 NA
ATOM     22  C   UNL     1     -45.059  -8.949 -29.669  0.00  0.00    +0.000 A 
ATOM     23  H   UNL     1     -44.449 -11.867 -28.587  0.00  0.00    +0.000 HD
ENDROOT
BRANCH   7  24
ATOM     24  C   UNL     1     -43.787  -3.124 -33.006  0.00  0.00    +0.000 A 
ATOM     25  C   UNL     1     -44.517  -1.998 -33.423  0.00  0.00    +0.000 A 
ATOM     26  F   UNL     1     -45.708  -2.144 -34.056  0.00  0.00    +0.000 F 
ATOM     27  C   UNL     1     -44.007  -0.714 -33.215  0.00  0.00    +0.000 A 
ATOM     28  C   UNL     1     -42.767  -0.543 -32.594  0.00  0.00    +0.000 A 
ATOM     29  C   UNL     1     -42.034  -1.657 -32.181  0.00  0.00    +0.000 A 
ATOM     30  C   UNL     1     -42.534  -2.944 -32.384  0.00  0.00    +0.000 A 
ATOM     31  F   UNL     1     -41.797  -4.010 -31.984  0.00  0.00    +0.000 F 
ENDBRANCH   7  24
TORSDOF 1
ENDMDL
