MODEL 1
REMARK VINA RESULT:      -6.4      0.000      0.000
REMARK  Name = ZINC000018195610 ZINC18195610
REMARK  2 active torsions:
REMARK  status: ('A' for Active; 'I' for Inactive)
REMARK    1  A    between atoms: C_6  and  C_21
REMARK    2  A    between atoms: C_11  and  O_12
REMARK                            x       y       z     vdW  Elec       q    Type
REMARK                         _______ _______ _______ _____ _____    ______ ____
ROOT
ATOM      1  C   UNL     1     -45.345  -7.320 -30.829  0.00  0.00    +0.000 C 
ATOM      2  C   UNL     1     -46.629  -6.847 -31.492  0.00  0.00    +0.000 C 
ATOM      3  C   UNL     1     -46.972  -5.428 -31.031  0.00  0.00    +0.000 C 
ATOM      4  C   UNL     1     -46.067  -4.368 -31.605  0.00  0.00    +0.000 C 
ATOM      5  C   UNL     1     -45.397  -4.561 -32.781  0.00  0.00    +0.000 C 
ATOM      6  C   UNL     1     -44.429  -3.514 -33.348  0.00  0.00    +0.000 C 
ATOM      7  C   UNL     1     -44.545  -2.207 -32.627  0.00  0.00    +0.000 A 
ATOM      8  C   UNL     1     -45.241  -2.054 -31.476  0.00  0.00    +0.000 A 
ATOM      9  N   UNL     1     -45.131  -0.802 -30.998  0.00  0.00    +0.000 N 
ATOM     10  N   UNL     1     -44.350  -0.132 -31.841  0.00  0.00    +0.000 NA
ATOM     11  C   UNL     1     -43.982  -0.973 -32.832  0.00  0.00    +0.000 A 
ATOM     12  N   UNL     1     -45.996  -3.114 -30.904  0.00  0.00    +0.000 N 
ATOM     13  C   UNL     1     -45.579  -5.829 -33.527  0.00  0.00    +0.000 C 
ATOM     14  O   UNL     1     -45.000  -6.007 -34.632  0.00  0.00    +0.000 OA
ATOM     15  C   UNL     1     -46.495  -6.898 -33.012  0.00  0.00    +0.000 C 
ATOM     16  C   UNL     1     -47.749  -7.774 -31.074  0.00  0.00    +0.000 C 
ATOM     17  H   UNL     1     -45.550  -0.447 -30.181  0.00  0.00    +0.000 HD
ATOM     18  H   UNL     1     -46.460  -2.991 -30.045  0.00  0.00    +0.000 HD
ENDROOT
BRANCH   6  19
ATOM     19  C   UNL     1     -43.012  -4.007 -33.311  0.00  0.00    +0.000 A 
ATOM     20  C   UNL     1     -42.458  -4.558 -32.148  0.00  0.00    +0.000 A 
ATOM     21  C   UNL     1     -41.133  -4.999 -32.148  0.00  0.00    +0.000 A 
ATOM     22  C   UNL     1     -40.376  -4.878 -33.314  0.00  0.00    +0.000 A 
ATOM     23  N   UNL     1     -40.928  -4.337 -34.434  0.00  0.00    +0.000 NA
ATOM     24  C   UNL     1     -42.216  -3.903 -34.455  0.00  0.00    +0.000 A 
ENDBRANCH   6  19
BRANCH  11  25
ATOM     25  O   UNL     1     -43.149  -0.619 -33.887  0.00  0.00    +0.000 OA
ATOM     26  H   UNL     1     -42.414  -0.058 -33.735  0.00  0.00    +0.000 HD
ENDBRANCH  11  25
TORSDOF 2
ENDMDL
MODEL 2
REMARK VINA RESULT:      -6.2      2.933      5.885
REMARK  Name = ZINC000018195610 ZINC18195610
REMARK  2 active torsions:
REMARK  status: ('A' for Active; 'I' for Inactive)
REMARK    1  A    between atoms: C_6  and  C_21
REMARK    2  A    between atoms: C_11  and  O_12
REMARK                            x       y       z     vdW  Elec       q    Type
REMARK                         _______ _______ _______ _____ _____    ______ ____
ROOT
ATOM      1  C   UNL     1     -42.690  -2.411 -32.096  0.00  0.00    +0.000 C 
ATOM      2  C   UNL     1     -43.965  -1.849 -32.706  0.00  0.00    +0.000 C 
ATOM      3  C   UNL     1     -44.576  -2.858 -33.681  0.00  0.00    +0.000 C 
ATOM      4  C   UNL     1     -45.204  -4.050 -33.004  0.00  0.00    +0.000 C 
ATOM      5  C   UNL     1     -45.658  -3.984 -31.716  0.00  0.00    +0.000 C 
ATOM      6  C   UNL     1     -46.248  -5.204 -30.997  0.00  0.00    +0.000 C 
ATOM      7  C   UNL     1     -46.516  -6.329 -31.948  0.00  0.00    +0.000 A 
ATOM      8  C   UNL     1     -46.069  -6.343 -33.225  0.00  0.00    +0.000 A 
ATOM      9  N   UNL     1     -46.386  -7.495 -33.844  0.00  0.00    +0.000 N 
ATOM     10  N   UNL     1     -47.040  -8.243 -32.960  0.00  0.00    +0.000 NA
ATOM     11  C   UNL     1     -47.122  -7.552 -31.802  0.00  0.00    +0.000 A 
ATOM     12  N   UNL     1     -45.379  -5.239 -33.796  0.00  0.00    +0.000 N 
ATOM     13  C   UNL     1     -45.554  -2.708 -30.969  0.00  0.00    +0.000 C 
ATOM     14  O   UNL     1     -46.001  -2.619 -29.795  0.00  0.00    +0.000 OA
ATOM     15  C   UNL     1     -44.966  -1.488 -31.611  0.00  0.00    +0.000 C 
ATOM     16  C   UNL     1     -43.612  -0.593 -33.472  0.00  0.00    +0.000 C 
ATOM     17  H   UNL     1     -46.176  -7.737 -34.775  0.00  0.00    +0.000 HD
ATOM     18  H   UNL     1     -45.028  -5.288 -34.714  0.00  0.00    +0.000 HD
ENDROOT
BRANCH   6  19
ATOM     19  C   UNL     1     -45.354  -5.663 -29.882  0.00  0.00    +0.000 A 
ATOM     20  C   UNL     1     -43.981  -5.863 -30.079  0.00  0.00    +0.000 A 
ATOM     21  C   UNL     1     -43.182  -6.299 -29.020  0.00  0.00    +0.000 A 
ATOM     22  C   UNL     1     -43.769  -6.535 -27.776  0.00  0.00    +0.000 A 
ATOM     23  N   UNL     1     -45.104  -6.340 -27.603  0.00  0.00    +0.000 NA
ATOM     24  C   UNL     1     -45.900  -5.915 -28.621  0.00  0.00    +0.000 A 
ENDBRANCH   6  19
BRANCH  11  25
ATOM     25  O   UNL     1     -47.727  -8.033 -30.648  0.00  0.00    +0.000 OA
ATOM     26  H   UNL     1     -47.322  -7.895 -29.814  0.00  0.00    +0.000 HD
ENDBRANCH  11  25
TORSDOF 2
ENDMDL
MODEL 3
REMARK VINA RESULT:      -5.9     14.595     17.053
REMARK  Name = ZINC000018195610 ZINC18195610
REMARK  2 active torsions:
REMARK  status: ('A' for Active; 'I' for Inactive)
REMARK    1  A    between atoms: C_6  and  C_21
REMARK    2  A    between atoms: C_11  and  O_12
REMARK                            x       y       z     vdW  Elec       q    Type
REMARK                         _______ _______ _______ _____ _____    ______ ____
ROOT
ATOM      1  C   UNL     1     -44.049 -16.252 -19.177  0.00  0.00    +0.000 C 
ATOM      2  C   UNL     1     -45.557 -16.186 -19.371  0.00  0.00    +0.000 C 
ATOM      3  C   UNL     1     -45.896 -15.368 -20.619  0.00  0.00    +0.000 C 
ATOM      4  C   UNL     1     -45.573 -16.072 -21.912  0.00  0.00    +0.000 C 
ATOM      5  C   UNL     1     -45.510 -17.435 -21.987  0.00  0.00    +0.000 C 
ATOM      6  C   UNL     1     -45.128 -18.163 -23.282  0.00  0.00    +0.000 C 
ATOM      7  C   UNL     1     -45.128 -17.236 -24.457  0.00  0.00    +0.000 A 
ATOM      8  C   UNL     1     -45.218 -15.890 -24.340  0.00  0.00    +0.000 A 
ATOM      9  N   UNL     1     -45.127 -15.285 -25.538  0.00  0.00    +0.000 N 
ATOM     10  N   UNL     1     -44.967 -16.245 -26.446  0.00  0.00    +0.000 NA
ATOM     11  C   UNL     1     -44.961 -17.434 -25.805  0.00  0.00    +0.000 A 
ATOM     12  N   UNL     1     -45.411 -15.253 -23.085  0.00  0.00    +0.000 N 
ATOM     13  C   UNL     1     -45.786 -18.248 -20.778  0.00  0.00    +0.000 C 
ATOM     14  O   UNL     1     -45.770 -19.506 -20.838  0.00  0.00    +0.000 OA
ATOM     15  C   UNL     1     -46.143 -17.593 -19.478  0.00  0.00    +0.000 C 
ATOM     16  C   UNL     1     -46.162 -15.501 -18.165  0.00  0.00    +0.000 C 
ATOM     17  H   UNL     1     -45.171 -14.317 -25.711  0.00  0.00    +0.000 HD
ATOM     18  H   UNL     1     -45.433 -14.272 -23.019  0.00  0.00    +0.000 HD
ENDROOT
BRANCH   6  19
ATOM     19  C   UNL     1     -43.795 -18.842 -23.152  0.00  0.00    +0.000 A 
ATOM     20  C   UNL     1     -43.625 -20.192 -23.491  0.00  0.00    +0.000 A 
ATOM     21  C   UNL     1     -42.372 -20.793 -23.349  0.00  0.00    +0.000 A 
ATOM     22  C   UNL     1     -41.305 -20.035 -22.864  0.00  0.00    +0.000 A 
ATOM     23  N   UNL     1     -41.488 -18.727 -22.536  0.00  0.00    +0.000 NA
ATOM     24  C   UNL     1     -42.700 -18.124 -22.668  0.00  0.00    +0.000 A 
ENDBRANCH   6  19
BRANCH  11  25
ATOM     25  O   UNL     1     -44.798 -18.660 -26.437  0.00  0.00    +0.000 OA
ATOM     26  H   UNL     1     -43.977 -19.109 -26.384  0.00  0.00    +0.000 HD
ENDBRANCH  11  25
TORSDOF 2
ENDMDL
