MODEL 1
REMARK VINA RESULT:      -6.9      0.000      0.000
REMARK  Name = ZINC000031808022
REMARK  1 active torsions:
REMARK  status: ('A' for Active; 'I' for Inactive)
REMARK    1  A    between atoms: C_7  and  C_24
REMARK                            x       y       z     vdW  Elec       q    Type
REMARK                         _______ _______ _______ _____ _____    ______ ____
ROOT
ATOM      1  C   UNL     1     -47.409  -4.463 -26.218  0.00  0.00    +0.000 C 
ATOM      2  C   UNL     1     -46.941  -4.713 -27.609  0.00  0.00    +0.000 A 
ATOM      3  N   UNL     1     -46.789  -3.741 -28.525  0.00  0.00    +0.000 NA
ATOM      4  N   UNL     1     -46.361  -4.306 -29.641  0.00  0.00    +0.000 N 
ATOM      5  C   UNL     1     -46.201  -5.636 -29.450  0.00  0.00    +0.000 A 
ATOM      6  C   UNL     1     -46.588  -5.940 -28.146  0.00  0.00    +0.000 A 
ATOM      7  C   UNL     1     -46.591  -7.233 -27.377  0.00  0.00    +0.000 C 
ATOM      8  S   UNL     1     -46.868  -8.730 -28.374  0.00  0.00    +0.000 S 
ATOM      9  C   UNL     1     -45.231  -8.644 -29.138  0.00  0.00    +0.000 C 
ATOM     10  C   UNL     1     -45.307  -7.886 -30.411  0.00  0.00    +0.000 C 
ATOM     11  O   UNL     1     -44.996  -8.476 -31.476  0.00  0.00    +0.000 OA
ATOM     12  N   UNL     1     -45.681  -6.507 -30.468  0.00  0.00    +0.000 N 
ATOM     13  H   UNL     1     -45.562  -6.085 -31.350  0.00  0.00    +0.000 HD
ATOM     14  C   UNL     1     -46.062  -3.551 -30.825  0.00  0.00    +0.000 A 
ATOM     15  N   UNL     1     -45.494  -2.312 -30.721  0.00  0.00    +0.000 NA
ATOM     16  C   UNL     1     -45.222  -1.553 -31.829  0.00  0.00    +0.000 A 
ATOM     17  N   UNL     1     -45.533  -2.012 -33.078  0.00  0.00    +0.000 NA
ATOM     18  C   UNL     1     -46.109  -3.234 -33.183  0.00  0.00    +0.000 A 
ATOM     19  N   UNL     1     -46.533  -3.822 -34.307  0.00  0.00    +0.000 N 
ATOM     20  C   UNL     1     -47.080  -4.979 -33.844  0.00  0.00    +0.000 A 
ATOM     21  N   UNL     1     -47.014  -5.118 -32.492  0.00  0.00    +0.000 NA
ATOM     22  C   UNL     1     -46.383  -4.000 -32.107  0.00  0.00    +0.000 A 
ATOM     23  H   UNL     1     -46.466  -3.500 -35.236  0.00  0.00    +0.000 HD
ENDROOT
BRANCH   7  24
ATOM     24  C   UNL     1     -45.482  -7.359 -26.365  0.00  0.00    +0.000 A 
ATOM     25  C   UNL     1     -44.164  -7.017 -26.707  0.00  0.00    +0.000 A 
ATOM     26  C   UNL     1     -43.135  -7.129 -25.769  0.00  0.00    +0.000 A 
ATOM     27  C   UNL     1     -43.415  -7.584 -24.480  0.00  0.00    +0.000 A 
ATOM     28  C   UNL     1     -44.722  -7.924 -24.127  0.00  0.00    +0.000 A 
ATOM     29  C   UNL     1     -45.758  -7.814 -25.061  0.00  0.00    +0.000 A 
ATOM     30 CL   UNL     1     -47.386  -8.247 -24.563  0.00  0.00    +0.000 Cl
ENDBRANCH   7  24
TORSDOF 1
ENDMDL
MODEL 2
REMARK VINA RESULT:      -6.6      4.865      7.080
REMARK  Name = ZINC000031808022
REMARK  1 active torsions:
REMARK  status: ('A' for Active; 'I' for Inactive)
REMARK    1  A    between atoms: C_7  and  C_24
REMARK                            x       y       z     vdW  Elec       q    Type
REMARK                         _______ _______ _______ _____ _____    ______ ____
ROOT
ATOM      1  C   UNL     1     -47.177  -3.478 -33.724  0.00  0.00    +0.000 C 
ATOM      2  C   UNL     1     -46.496  -4.802 -33.768  0.00  0.00    +0.000 A 
ATOM      3  N   UNL     1     -46.802  -5.762 -34.659  0.00  0.00    +0.000 NA
ATOM      4  N   UNL     1     -46.012  -6.795 -34.419  0.00  0.00    +0.000 N 
ATOM      5  C   UNL     1     -45.171  -6.504 -33.400  0.00  0.00    +0.000 A 
ATOM      6  C   UNL     1     -45.471  -5.223 -32.939  0.00  0.00    +0.000 A 
ATOM      7  C   UNL     1     -44.850  -4.375 -31.862  0.00  0.00    +0.000 C 
ATOM      8  S   UNL     1     -44.146  -5.294 -30.457  0.00  0.00    +0.000 S 
ATOM      9  C   UNL     1     -42.753  -5.910 -31.430  0.00  0.00    +0.000 C 
ATOM     10  C   UNL     1     -43.089  -7.231 -32.014  0.00  0.00    +0.000 C 
ATOM     11  O   UNL     1     -42.389  -8.223 -31.690  0.00  0.00    +0.000 OA
ATOM     12  N   UNL     1     -44.149  -7.411 -32.957  0.00  0.00    +0.000 N 
ATOM     13  H   UNL     1     -44.184  -8.305 -33.371  0.00  0.00    +0.000 HD
ATOM     14  C   UNL     1     -46.047  -7.993 -35.209  0.00  0.00    +0.000 A 
ATOM     15  N   UNL     1     -46.267  -7.919 -36.556  0.00  0.00    +0.000 NA
ATOM     16  C   UNL     1     -46.335  -9.046 -37.335  0.00  0.00    +0.000 A 
ATOM     17  N   UNL     1     -46.201 -10.285 -36.774  0.00  0.00    +0.000 NA
ATOM     18  C   UNL     1     -45.997 -10.362 -35.438  0.00  0.00    +0.000 A 
ATOM     19  N   UNL     1     -45.900 -11.479 -34.708  0.00  0.00    +0.000 N 
ATOM     20  C   UNL     1     -45.770 -10.993 -33.443  0.00  0.00    +0.000 A 
ATOM     21  N   UNL     1     -45.790  -9.634 -33.370  0.00  0.00    +0.000 NA
ATOM     22  C   UNL     1     -45.924  -9.267 -34.652  0.00  0.00    +0.000 A 
ATOM     23  H   UNL     1     -45.917 -12.417 -35.009  0.00  0.00    +0.000 HD
ENDROOT
BRANCH   7  24
ATOM     24  C   UNL     1     -43.975  -3.260 -32.374  0.00  0.00    +0.000 A 
ATOM     25  C   UNL     1     -42.940  -3.529 -33.284  0.00  0.00    +0.000 A 
ATOM     26  C   UNL     1     -42.130  -2.497 -33.763  0.00  0.00    +0.000 A 
ATOM     27  C   UNL     1     -42.348  -1.186 -33.337  0.00  0.00    +0.000 A 
ATOM     28  C   UNL     1     -43.377  -0.906 -32.434  0.00  0.00    +0.000 A 
ATOM     29  C   UNL     1     -44.192  -1.935 -31.951  0.00  0.00    +0.000 A 
ATOM     30 CL   UNL     1     -45.477  -1.527 -30.824  0.00  0.00    +0.000 Cl
ENDBRANCH   7  24
TORSDOF 1
ENDMDL
MODEL 3
REMARK VINA RESULT:      -6.3     14.126     15.769
REMARK  Name = ZINC000031808022
REMARK  1 active torsions:
REMARK  status: ('A' for Active; 'I' for Inactive)
REMARK    1  A    between atoms: C_7  and  C_24
REMARK                            x       y       z     vdW  Elec       q    Type
REMARK                         _______ _______ _______ _____ _____    ______ ____
ROOT
ATOM      1  C   UNL     1     -41.906 -16.735 -20.613  0.00  0.00    +0.000 C 
ATOM      2  C   UNL     1     -42.055 -17.738 -21.704  0.00  0.00    +0.000 A 
ATOM      3  N   UNL     1     -41.122 -18.663 -21.991  0.00  0.00    +0.000 NA
ATOM      4  N   UNL     1     -41.573 -19.385 -23.003  0.00  0.00    +0.000 N 
ATOM      5  C   UNL     1     -42.808 -18.958 -23.356  0.00  0.00    +0.000 A 
ATOM      6  C   UNL     1     -43.145 -17.875 -22.546  0.00  0.00    +0.000 A 
ATOM      7  C   UNL     1     -44.390 -17.035 -22.465  0.00  0.00    +0.000 C 
ATOM      8  S   UNL     1     -45.291 -16.824 -24.033  0.00  0.00    +0.000 S 
ATOM      9  C   UNL     1     -45.880 -18.533 -24.037  0.00  0.00    +0.000 C 
ATOM     10  C   UNL     1     -44.937 -19.391 -24.794  0.00  0.00    +0.000 C 
ATOM     11  O   UNL     1     -45.359 -19.987 -25.817  0.00  0.00    +0.000 OA
ATOM     12  N   UNL     1     -43.581 -19.597 -24.385  0.00  0.00    +0.000 N 
ATOM     13  H   UNL     1     -43.100 -20.291 -24.892  0.00  0.00    +0.000 HD
ATOM     14  C   UNL     1     -40.839 -20.489 -23.552  0.00  0.00    +0.000 A 
ATOM     15  N   UNL     1     -40.111 -21.303 -22.730  0.00  0.00    +0.000 NA
ATOM     16  C   UNL     1     -39.376 -22.350 -23.224  0.00  0.00    +0.000 A 
ATOM     17  N   UNL     1     -39.337 -22.596 -24.568  0.00  0.00    +0.000 NA
ATOM     18  C   UNL     1     -40.047 -21.782 -25.386  0.00  0.00    +0.000 A 
ATOM     19  N   UNL     1     -40.086 -21.832 -26.723  0.00  0.00    +0.000 N 
ATOM     20  C   UNL     1     -40.877 -20.768 -27.032  0.00  0.00    +0.000 A 
ATOM     21  N   UNL     1     -41.315 -20.073 -25.947  0.00  0.00    +0.000 NA
ATOM     22  C   UNL     1     -40.779 -20.749 -24.922  0.00  0.00    +0.000 A 
ATOM     23  H   UNL     1     -39.652 -22.475 -27.329  0.00  0.00    +0.000 HD
ENDROOT
BRANCH   7  24
ATOM     24  C   UNL     1     -45.270 -17.337 -21.280  0.00  0.00    +0.000 A 
ATOM     25  C   UNL     1     -45.627 -18.661 -20.979  0.00  0.00    +0.000 A 
ATOM     26  C   UNL     1     -46.440 -18.945 -19.879  0.00  0.00    +0.000 A 
ATOM     27  C   UNL     1     -46.902 -17.907 -19.069  0.00  0.00    +0.000 A 
ATOM     28  C   UNL     1     -46.551 -16.586 -19.357  0.00  0.00    +0.000 A 
ATOM     29  C   UNL     1     -45.737 -16.295 -20.457  0.00  0.00    +0.000 A 
ATOM     30 CL   UNL     1     -45.318 -14.617 -20.769  0.00  0.00    +0.000 Cl
ENDBRANCH   7  24
TORSDOF 1
ENDMDL
