MODEL 1
REMARK VINA RESULT:      -7.4      0.000      0.000
REMARK  Name = ZINC000032899841 ZINC32899841 PubChem-40135872
REMARK  6 active torsions:
REMARK  status: ('A' for Active; 'I' for Inactive)
REMARK    1  A    between atoms: C_1  and  C_19
REMARK    2  A    between atoms: C_12  and  C_15
REMARK    3  A    between atoms: C_19  and  O_21
REMARK    4  A    between atoms: O_21  and  C_22
REMARK    5  A    between atoms: C_22  and  C_25
REMARK    6  A    between atoms: C_25  and  N_26
REMARK                            x       y       z     vdW  Elec       q    Type
REMARK                         _______ _______ _______ _____ _____    ______ ____
ROOT
ATOM      1  C   UNL     1     -43.298  -4.612 -33.392  0.00  0.00    +0.000 C 
ATOM      2  O   UNL     1     -42.450  -4.768 -34.310  0.00  0.00    +0.000 OA
ATOM      3  N   UNL     1     -43.295  -3.405 -32.592  0.00  0.00    +0.000 N 
ATOM      4  C   UNL     1     -44.430  -3.149 -31.690  0.00  0.00    +0.000 C 
ATOM      5  C   UNL     1     -44.719  -1.687 -31.560  0.00  0.00    +0.000 C 
ATOM      6  O   UNL     1     -45.872  -1.303 -31.239  0.00  0.00    +0.000 OA
ATOM      7  N   UNL     1     -43.665  -0.736 -31.715  0.00  0.00    +0.000 N 
ATOM      8  C   UNL     1     -42.378  -1.152 -32.163  0.00  0.00    +0.000 A 
ATOM      9  C   UNL     1     -42.182  -2.475 -32.603  0.00  0.00    +0.000 A 
ATOM     10  C   UNL     1     -40.907  -2.859 -33.046  0.00  0.00    +0.000 A 
ATOM     11  C   UNL     1     -39.853  -1.943 -33.060  0.00  0.00    +0.000 A 
ATOM     12  C   UNL     1     -40.051  -0.628 -32.617  0.00  0.00    +0.000 A 
ATOM     13  C   UNL     1     -41.323  -0.236 -32.184  0.00  0.00    +0.000 A 
ATOM     14  H   UNL     1     -43.830   0.214 -31.510  0.00  0.00    +0.000 HD
ENDROOT
BRANCH  12  15
ATOM     15  C   UNL     1     -38.937   0.376 -32.682  0.00  0.00    +0.000 C 
ATOM     16  F   UNL     1     -38.611   0.786 -31.402  0.00  0.00    +0.000 F 
ATOM     17  F   UNL     1     -37.820  -0.189 -33.274  0.00  0.00    +0.000 F 
ATOM     18  F   UNL     1     -39.317   1.480 -33.426  0.00  0.00    +0.000 F 
ENDBRANCH  12  15
BRANCH   1  19
ATOM     19  C   UNL     1     -44.317  -5.695 -33.205  0.00  0.00    +0.000 C 
ATOM     20  C   UNL     1     -44.213  -6.746 -34.297  0.00  0.00    +0.000 C 
BRANCH  19  21
ATOM     21  O   UNL     1     -44.183  -6.286 -31.919  0.00  0.00    +0.000 OA
BRANCH  21  22
ATOM     22  C   UNL     1     -45.092  -7.230 -31.435  0.00  0.00    +0.000 C 
ATOM     23  O   UNL     1     -44.693  -8.339 -30.983  0.00  0.00    +0.000 OA
BRANCH  22  25
ATOM     24  C   UNL     1     -47.372  -8.176 -31.112  0.00  0.00    +0.000 C 
ATOM     25  C   UNL     1     -46.557  -6.948 -31.482  0.00  0.00    +0.000 C 
BRANCH  25  26
ATOM     26  N   UNL     1     -46.902  -5.806 -30.635  0.00  0.00    +0.000 N 
ATOM     27  C   UNL     1     -46.795  -5.729 -29.298  0.00  0.00    +0.000 A 
ATOM     28  C   UNL     1     -46.321  -6.684 -28.400  0.00  0.00    +0.000 A 
ATOM     29  C   UNL     1     -46.341  -6.345 -27.034  0.00  0.00    +0.000 A 
ATOM     30  C   UNL     1     -46.826  -5.087 -26.610  0.00  0.00    +0.000 A 
ATOM     31  C   UNL     1     -47.302  -4.148 -27.544  0.00  0.00    +0.000 A 
ATOM     32  C   UNL     1     -47.271  -4.514 -28.885  0.00  0.00    +0.000 A 
ATOM     33  O   UNL     1     -47.670  -3.828 -29.930  0.00  0.00    +0.000 OA
ATOM     34  C   UNL     1     -47.451  -4.610 -30.975  0.00  0.00    +0.000 A 
ATOM     35  O   UNL     1     -47.734  -4.276 -32.156  0.00  0.00    +0.000 OA
ENDBRANCH  25  26
ENDBRANCH  22  25
ENDBRANCH  21  22
ENDBRANCH  19  21
ENDBRANCH   1  19
TORSDOF 6
ENDMDL
MODEL 2
REMARK VINA RESULT:      -7.0      4.895      7.931
REMARK  Name = ZINC000032899841 ZINC32899841 PubChem-40135872
REMARK  6 active torsions:
REMARK  status: ('A' for Active; 'I' for Inactive)
REMARK    1  A    between atoms: C_1  and  C_19
REMARK    2  A    between atoms: C_12  and  C_15
REMARK    3  A    between atoms: C_19  and  O_21
REMARK    4  A    between atoms: O_21  and  C_22
REMARK    5  A    between atoms: C_22  and  C_25
REMARK    6  A    between atoms: C_25  and  N_26
REMARK                            x       y       z     vdW  Elec       q    Type
REMARK                         _______ _______ _______ _____ _____    ______ ____
ROOT
ATOM      1  C   UNL     1     -43.843  -6.127 -29.101  0.00  0.00    +0.000 C 
ATOM      2  O   UNL     1     -42.824  -6.579 -28.514  0.00  0.00    +0.000 OA
ATOM      3  N   UNL     1     -45.109  -6.037 -28.404  0.00  0.00    +0.000 N 
ATOM      4  C   UNL     1     -46.214  -5.297 -29.034  0.00  0.00    +0.000 C 
ATOM      5  C   UNL     1     -47.083  -4.624 -28.018  0.00  0.00    +0.000 C 
ATOM      6  O   UNL     1     -47.756  -3.613 -28.342  0.00  0.00    +0.000 OA
ATOM      7  N   UNL     1     -47.214  -5.181 -26.710  0.00  0.00    +0.000 N 
ATOM      8  C   UNL     1     -46.391  -6.272 -26.306  0.00  0.00    +0.000 A 
ATOM      9  C   UNL     1     -45.340  -6.706 -27.138  0.00  0.00    +0.000 A 
ATOM     10  C   UNL     1     -44.540  -7.778 -26.714  0.00  0.00    +0.000 A 
ATOM     11  C   UNL     1     -44.775  -8.399 -25.486  0.00  0.00    +0.000 A 
ATOM     12  C   UNL     1     -45.824  -7.967 -24.662  0.00  0.00    +0.000 A 
ATOM     13  C   UNL     1     -46.619  -6.891 -25.074  0.00  0.00    +0.000 A 
ATOM     14  H   UNL     1     -47.876  -4.809 -26.084  0.00  0.00    +0.000 HD
ENDROOT
BRANCH  12  15
ATOM     15  C   UNL     1     -46.045  -8.593 -23.315  0.00  0.00    +0.000 C 
ATOM     16  F   UNL     1     -47.308  -8.264 -22.858  0.00  0.00    +0.000 F 
ATOM     17  F   UNL     1     -45.942  -9.971 -23.407  0.00  0.00    +0.000 F 
ATOM     18  F   UNL     1     -45.104  -8.142 -22.406  0.00  0.00    +0.000 F 
ENDBRANCH  12  15
BRANCH   1  19
ATOM     19  C   UNL     1     -43.670  -5.654 -30.513  0.00  0.00    +0.000 C 
ATOM     20  C   UNL     1     -42.239  -5.221 -30.779  0.00  0.00    +0.000 C 
BRANCH  19  21
ATOM     21  O   UNL     1     -44.072  -6.666 -31.428  0.00  0.00    +0.000 OA
BRANCH  21  22
ATOM     22  C   UNL     1     -45.203  -6.532 -32.237  0.00  0.00    +0.000 C 
ATOM     23  O   UNL     1     -46.240  -7.216 -32.014  0.00  0.00    +0.000 OA
BRANCH  22  25
ATOM     24  C   UNL     1     -46.198  -6.005 -34.457  0.00  0.00    +0.000 C 
ATOM     25  C   UNL     1     -45.182  -5.600 -33.402  0.00  0.00    +0.000 C 
BRANCH  25  26
ATOM     26  N   UNL     1     -45.384  -4.215 -32.974  0.00  0.00    +0.000 N 
ATOM     27  C   UNL     1     -44.510  -3.200 -33.082  0.00  0.00    +0.000 A 
ATOM     28  C   UNL     1     -43.230  -3.200 -33.633  0.00  0.00    +0.000 A 
ATOM     29  C   UNL     1     -42.515  -1.988 -33.594  0.00  0.00    +0.000 A 
ATOM     30  C   UNL     1     -43.086  -0.833 -33.015  0.00  0.00    +0.000 A 
ATOM     31  C   UNL     1     -44.379  -0.869 -32.463  0.00  0.00    +0.000 A 
ATOM     32  C   UNL     1     -45.059  -2.082 -32.515  0.00  0.00    +0.000 A 
ATOM     33  O   UNL     1     -46.255  -2.370 -32.059  0.00  0.00    +0.000 OA
ATOM     34  C   UNL     1     -46.441  -3.651 -32.332  0.00  0.00    +0.000 A 
ATOM     35  O   UNL     1     -47.488  -4.277 -32.018  0.00  0.00    +0.000 OA
ENDBRANCH  25  26
ENDBRANCH  22  25
ENDBRANCH  21  22
ENDBRANCH  19  21
ENDBRANCH   1  19
TORSDOF 6
ENDMDL
MODEL 3
REMARK VINA RESULT:      -7.0      3.739      5.774
REMARK  Name = ZINC000032899841 ZINC32899841 PubChem-40135872
REMARK  6 active torsions:
REMARK  status: ('A' for Active; 'I' for Inactive)
REMARK    1  A    between atoms: C_1  and  C_19
REMARK    2  A    between atoms: C_12  and  C_15
REMARK    3  A    between atoms: C_19  and  O_21
REMARK    4  A    between atoms: O_21  and  C_22
REMARK    5  A    between atoms: C_22  and  C_25
REMARK    6  A    between atoms: C_25  and  N_26
REMARK                            x       y       z     vdW  Elec       q    Type
REMARK                         _______ _______ _______ _____ _____    ______ ____
ROOT
ATOM      1  C   UNL     1     -44.813  -6.715 -30.227  0.00  0.00    +0.000 C 
ATOM      2  O   UNL     1     -45.679  -6.003 -29.654  0.00  0.00    +0.000 OA
ATOM      3  N   UNL     1     -43.737  -6.098 -30.976  0.00  0.00    +0.000 N 
ATOM      4  C   UNL     1     -42.621  -6.939 -31.436  0.00  0.00    +0.000 C 
ATOM      5  C   UNL     1     -41.328  -6.185 -31.455  0.00  0.00    +0.000 C 
ATOM      6  O   UNL     1     -40.240  -6.807 -31.363  0.00  0.00    +0.000 OA
ATOM      7  N   UNL     1     -41.329  -4.773 -31.664  0.00  0.00    +0.000 N 
ATOM      8  C   UNL     1     -42.556  -4.048 -31.683  0.00  0.00    +0.000 A 
ATOM      9  C   UNL     1     -43.759  -4.695 -31.340  0.00  0.00    +0.000 A 
ATOM     10  C   UNL     1     -44.954  -3.957 -31.360  0.00  0.00    +0.000 A 
ATOM     11  C   UNL     1     -44.948  -2.604 -31.703  0.00  0.00    +0.000 A 
ATOM     12  C   UNL     1     -43.749  -1.964 -32.047  0.00  0.00    +0.000 A 
ATOM     13  C   UNL     1     -42.553  -2.691 -32.019  0.00  0.00    +0.000 A 
ATOM     14  H   UNL     1     -40.477  -4.297 -31.797  0.00  0.00    +0.000 HD
ENDROOT
BRANCH  12  15
ATOM     15  C   UNL     1     -43.729  -0.496 -32.360  0.00  0.00    +0.000 C 
ATOM     16  F   UNL     1     -44.748   0.135 -31.669  0.00  0.00    +0.000 F 
ATOM     17  F   UNL     1     -42.517   0.056 -31.983  0.00  0.00    +0.000 F 
ATOM     18  F   UNL     1     -43.905  -0.284 -33.717  0.00  0.00    +0.000 F 
ENDBRANCH  12  15
BRANCH   1  19
ATOM     19  C   UNL     1     -44.923  -8.201 -30.060  0.00  0.00    +0.000 C 
ATOM     20  C   UNL     1     -45.209  -8.574 -28.616  0.00  0.00    +0.000 C 
BRANCH  19  21
ATOM     21  O   UNL     1     -45.921  -8.725 -30.926  0.00  0.00    +0.000 OA
BRANCH  21  22
ATOM     22  C   UNL     1     -45.603  -9.457 -32.073  0.00  0.00    +0.000 C 
ATOM     23  O   UNL     1     -45.109  -8.888 -33.085  0.00  0.00    +0.000 OA
BRANCH  22  25
ATOM     24  C   UNL     1     -45.610 -11.492 -33.507  0.00  0.00    +0.000 C 
ATOM     25  C   UNL     1     -45.881 -10.923 -32.125  0.00  0.00    +0.000 C 
BRANCH  25  26
ATOM     26  N   UNL     1     -45.125 -11.640 -31.097  0.00  0.00    +0.000 N 
ATOM     27  C   UNL     1     -45.613 -12.196 -29.976  0.00  0.00    +0.000 A 
ATOM     28  C   UNL     1     -46.931 -12.250 -29.525  0.00  0.00    +0.000 A 
ATOM     29  C   UNL     1     -47.162 -12.883 -28.289  0.00  0.00    +0.000 A 
ATOM     30  C   UNL     1     -46.089 -13.431 -27.549  0.00  0.00    +0.000 A 
ATOM     31  C   UNL     1     -44.770 -13.354 -28.031  0.00  0.00    +0.000 A 
ATOM     32  C   UNL     1     -44.575 -12.722 -29.255  0.00  0.00    +0.000 A 
ATOM     33  O   UNL     1     -43.451 -12.512 -29.898  0.00  0.00    +0.000 OA
ATOM     34  C   UNL     1     -43.787 -11.858 -30.998  0.00  0.00    +0.000 A 
ATOM     35  O   UNL     1     -42.948 -11.474 -31.855  0.00  0.00    +0.000 OA
ENDBRANCH  25  26
ENDBRANCH  22  25
ENDBRANCH  21  22
ENDBRANCH  19  21
ENDBRANCH   1  19
TORSDOF 6
ENDMDL
