MODEL 1
REMARK VINA RESULT:      -6.5      0.000      0.000
REMARK  Name = ZINC000031806781
REMARK  3 active torsions:
REMARK  status: ('A' for Active; 'I' for Inactive)
REMARK    1  A    between atoms: C_1  and  C_28
REMARK    2  A    between atoms: C_24  and  O_31
REMARK    3  A    between atoms: C_27  and  O_32
REMARK                            x       y       z     vdW  Elec       q    Type
REMARK                         _______ _______ _______ _____ _____    ______ ____
ROOT
ATOM      1  C   UNL     1     -45.836  -6.305 -28.638  0.00  0.00    +0.000 C 
ATOM      2  S   UNL     1     -47.278  -5.238 -28.945  0.00  0.00    +0.000 S 
ATOM      3  C   UNL     1     -47.429  -5.781 -30.660  0.00  0.00    +0.000 C 
ATOM      4  C   UNL     1     -46.680  -4.855 -31.543  0.00  0.00    +0.000 C 
ATOM      5  O   UNL     1     -47.316  -4.223 -32.425  0.00  0.00    +0.000 OA
ATOM      6  N   UNL     1     -45.264  -4.674 -31.451  0.00  0.00    +0.000 N 
ATOM      7  C   UNL     1     -44.320  -5.189 -30.495  0.00  0.00    +0.000 A 
ATOM      8  C   UNL     1     -44.557  -5.906 -29.323  0.00  0.00    +0.000 A 
ATOM      9  C   UNL     1     -43.289  -6.212 -28.858  0.00  0.00    +0.000 A 
ATOM     10  C   UNL     1     -42.966  -6.982 -27.626  0.00  0.00    +0.000 C 
ATOM     11  N   UNL     1     -42.354  -5.716 -29.689  0.00  0.00    +0.000 NA
ATOM     12  N   UNL     1     -42.982  -5.083 -30.666  0.00  0.00    +0.000 N 
ATOM     13  H   UNL     1     -44.873  -4.108 -32.154  0.00  0.00    +0.000 HD
ATOM     14  C   UNL     1     -42.286  -4.461 -31.755  0.00  0.00    +0.000 A 
ATOM     15  N   UNL     1     -41.142  -5.025 -32.249  0.00  0.00    +0.000 NA
ATOM     16  C   UNL     1     -40.436  -4.442 -33.269  0.00  0.00    +0.000 A 
ATOM     17  N   UNL     1     -40.854  -3.260 -33.814  0.00  0.00    +0.000 NA
ATOM     18  C   UNL     1     -41.979  -2.692 -33.317  0.00  0.00    +0.000 A 
ATOM     19  N   UNL     1     -42.506  -1.518 -33.680  0.00  0.00    +0.000 N 
ATOM     20  C   UNL     1     -43.569  -1.400 -32.838  0.00  0.00    +0.000 A 
ATOM     21  N   UNL     1     -43.708  -2.445 -31.977  0.00  0.00    +0.000 NA
ATOM     22  C   UNL     1     -42.691  -3.250 -32.316  0.00  0.00    +0.000 A 
ATOM     23  H   UNL     1     -42.202  -0.895 -34.381  0.00  0.00    +0.000 HD
ENDROOT
BRANCH   1  28
ATOM     24  C   UNL     1     -46.139  -9.870 -29.885  0.00  0.00    +0.000 A 
ATOM     25  C   UNL     1     -46.632 -10.541 -28.765  0.00  0.00    +0.000 A 
ATOM     26  C   UNL     1     -46.880  -9.846 -27.581  0.00  0.00    +0.000 A 
ATOM     27  C   UNL     1     -46.640  -8.464 -27.497  0.00  0.00    +0.000 A 
ATOM     28  C   UNL     1     -46.144  -7.780 -28.630  0.00  0.00    +0.000 A 
ATOM     29  C   UNL     1     -45.897  -8.492 -29.809  0.00  0.00    +0.000 A 
BRANCH  24  31
ATOM     30  C   UNL     1     -45.557 -11.974 -31.048  0.00  0.00    +0.000 C 
ATOM     31  O   UNL     1     -45.900 -10.595 -31.056  0.00  0.00    +0.000 OA
ENDBRANCH  24  31
BRANCH  27  32
ATOM     32  O   UNL     1     -46.892  -7.769 -26.308  0.00  0.00    +0.000 OA
ATOM     33  C   UNL     1     -47.371  -8.402 -25.129  0.00  0.00    +0.000 C 
ENDBRANCH  27  32
ENDBRANCH   1  28
TORSDOF 3
ENDMDL
MODEL 2
REMARK VINA RESULT:      -6.5      2.959      4.515
REMARK  Name = ZINC000031806781
REMARK  3 active torsions:
REMARK  status: ('A' for Active; 'I' for Inactive)
REMARK    1  A    between atoms: C_1  and  C_28
REMARK    2  A    between atoms: C_24  and  O_31
REMARK    3  A    between atoms: C_27  and  O_32
REMARK                            x       y       z     vdW  Elec       q    Type
REMARK                         _______ _______ _______ _____ _____    ______ ____
ROOT
ATOM      1  C   UNL     1     -46.521  -7.255 -27.481  0.00  0.00    +0.000 C 
ATOM      2  S   UNL     1     -46.729  -8.758 -28.485  0.00  0.00    +0.000 S 
ATOM      3  C   UNL     1     -45.084  -8.611 -29.213  0.00  0.00    +0.000 C 
ATOM      4  C   UNL     1     -45.169  -7.865 -30.491  0.00  0.00    +0.000 C 
ATOM      5  O   UNL     1     -44.816  -8.446 -31.548  0.00  0.00    +0.000 OA
ATOM      6  N   UNL     1     -45.609  -6.505 -30.565  0.00  0.00    +0.000 N 
ATOM      7  C   UNL     1     -46.148  -5.645 -29.545  0.00  0.00    +0.000 A 
ATOM      8  C   UNL     1     -46.504  -5.952 -28.233  0.00  0.00    +0.000 A 
ATOM      9  C   UNL     1     -46.876  -4.731 -27.695  0.00  0.00    +0.000 A 
ATOM     10  C   UNL     1     -47.341  -4.488 -26.302  0.00  0.00    +0.000 C 
ATOM     11  N   UNL     1     -46.753  -3.757 -28.615  0.00  0.00    +0.000 NA
ATOM     12  N   UNL     1     -46.331  -4.318 -29.737  0.00  0.00    +0.000 N 
ATOM     13  H   UNL     1     -45.529  -6.093 -31.454  0.00  0.00    +0.000 HD
ATOM     14  C   UNL     1     -46.058  -3.559 -30.923  0.00  0.00    +0.000 A 
ATOM     15  N   UNL     1     -45.532  -2.301 -30.826  0.00  0.00    +0.000 NA
ATOM     16  C   UNL     1     -45.286  -1.538 -31.937  0.00  0.00    +0.000 A 
ATOM     17  N   UNL     1     -45.578  -2.015 -33.185  0.00  0.00    +0.000 NA
ATOM     18  C   UNL     1     -46.112  -3.255 -33.283  0.00  0.00    +0.000 A 
ATOM     19  N   UNL     1     -46.514  -3.864 -34.405  0.00  0.00    +0.000 N 
ATOM     20  C   UNL     1     -47.022  -5.037 -33.936  0.00  0.00    +0.000 A 
ATOM     21  N   UNL     1     -46.951  -5.167 -32.583  0.00  0.00    +0.000 NA
ATOM     22  C   UNL     1     -46.360  -4.025 -32.203  0.00  0.00    +0.000 A 
ATOM     23  H   UNL     1     -46.457  -3.544 -35.334  0.00  0.00    +0.000 HD
ENDROOT
BRANCH   1  28
ATOM     24  C   UNL     1     -43.170  -7.205 -25.711  0.00  0.00    +0.000 A 
ATOM     25  C   UNL     1     -43.514  -7.549 -24.403  0.00  0.00    +0.000 A 
ATOM     26  C   UNL     1     -44.845  -7.808 -24.070  0.00  0.00    +0.000 A 
ATOM     27  C   UNL     1     -45.856  -7.730 -25.043  0.00  0.00    +0.000 A 
ATOM     28  C   UNL     1     -45.511  -7.385 -26.369  0.00  0.00    +0.000 A 
ATOM     29  C   UNL     1     -44.173  -7.124 -26.687  0.00  0.00    +0.000 A 
BRANCH  24  31
ATOM     30  C   UNL     1     -40.906  -6.462 -25.048  0.00  0.00    +0.000 C 
ATOM     31  O   UNL     1     -41.830  -6.949 -26.012  0.00  0.00    +0.000 OA
ENDBRANCH  24  31
BRANCH  27  32
ATOM     32  O   UNL     1     -47.189  -7.994 -24.707  0.00  0.00    +0.000 OA
ATOM     33  C   UNL     1     -47.756  -7.633 -23.455  0.00  0.00    +0.000 C 
ENDBRANCH  27  32
ENDBRANCH   1  28
TORSDOF 3
ENDMDL
MODEL 3
REMARK VINA RESULT:      -6.2      9.745     13.224
REMARK  Name = ZINC000031806781
REMARK  3 active torsions:
REMARK  status: ('A' for Active; 'I' for Inactive)
REMARK    1  A    between atoms: C_1  and  C_28
REMARK    2  A    between atoms: C_24  and  O_31
REMARK    3  A    between atoms: C_27  and  O_32
REMARK                            x       y       z     vdW  Elec       q    Type
REMARK                         _______ _______ _______ _____ _____    ______ ____
ROOT
ATOM      1  C   UNL     1     -41.546 -19.228 -26.413  0.00  0.00    +0.000 C 
ATOM      2  S   UNL     1     -42.472 -19.717 -24.925  0.00  0.00    +0.000 S 
ATOM      3  C   UNL     1     -43.974 -20.066 -25.863  0.00  0.00    +0.000 C 
ATOM      4  C   UNL     1     -44.839 -18.862 -25.885  0.00  0.00    +0.000 C 
ATOM      5  O   UNL     1     -45.984 -18.937 -25.371  0.00  0.00    +0.000 OA
ATOM      6  N   UNL     1     -44.434 -17.630 -26.490  0.00  0.00    +0.000 N 
ATOM      7  C   UNL     1     -43.170 -17.243 -27.057  0.00  0.00    +0.000 A 
ATOM      8  C   UNL     1     -41.958 -17.931 -27.054  0.00  0.00    +0.000 A 
ATOM      9  C   UNL     1     -41.120 -17.131 -27.815  0.00  0.00    +0.000 A 
ATOM     10  C   UNL     1     -39.694 -17.408 -28.138  0.00  0.00    +0.000 C 
ATOM     11  N   UNL     1     -41.779 -16.041 -28.247  0.00  0.00    +0.000 NA
ATOM     12  N   UNL     1     -43.012 -16.104 -27.770  0.00  0.00    +0.000 N 
ATOM     13  H   UNL     1     -45.132 -16.938 -26.525  0.00  0.00    +0.000 HD
ATOM     14  C   UNL     1     -44.005 -15.112 -28.067  0.00  0.00    +0.000 A 
ATOM     15  N   UNL     1     -44.030 -14.513 -29.296  0.00  0.00    +0.000 NA
ATOM     16  C   UNL     1     -44.947 -13.542 -29.603  0.00  0.00    +0.000 A 
ATOM     17  N   UNL     1     -45.860 -13.132 -28.672  0.00  0.00    +0.000 NA
ATOM     18  C   UNL     1     -45.829 -13.714 -27.450  0.00  0.00    +0.000 A 
ATOM     19  N   UNL     1     -46.599 -13.406 -26.400  0.00  0.00    +0.000 N 
ATOM     20  C   UNL     1     -46.116 -14.229 -25.429  0.00  0.00    +0.000 A 
ATOM     21  N   UNL     1     -45.085 -15.018 -25.840  0.00  0.00    +0.000 NA
ATOM     22  C   UNL     1     -44.937 -14.674 -27.126  0.00  0.00    +0.000 A 
ATOM     23  H   UNL     1     -47.331 -12.749 -26.344  0.00  0.00    +0.000 HD
ENDROOT
BRANCH   1  28
ATOM     24  C   UNL     1     -41.723 -21.399 -29.514  0.00  0.00    +0.000 A 
ATOM     25  C   UNL     1     -40.778 -22.390 -29.244  0.00  0.00    +0.000 A 
ATOM     26  C   UNL     1     -40.065 -22.373 -28.045  0.00  0.00    +0.000 A 
ATOM     27  C   UNL     1     -40.288 -21.365 -27.091  0.00  0.00    +0.000 A 
ATOM     28  C   UNL     1     -41.247 -20.363 -27.359  0.00  0.00    +0.000 A 
ATOM     29  C   UNL     1     -41.951 -20.390 -28.568  0.00  0.00    +0.000 A 
BRANCH  24  31
ATOM     30  C   UNL     1     -42.803 -20.269 -31.431  0.00  0.00    +0.000 C 
ATOM     31  O   UNL     1     -42.420 -21.442 -30.725  0.00  0.00    +0.000 OA
ENDBRANCH  24  31
BRANCH  27  32
ATOM     32  O   UNL     1     -39.573 -21.354 -25.887  0.00  0.00    +0.000 OA
ATOM     33  C   UNL     1     -39.649 -22.404 -24.933  0.00  0.00    +0.000 C 
ENDBRANCH  27  32
ENDBRANCH   1  28
TORSDOF 3
ENDMDL
