MODEL 1
REMARK VINA RESULT:      -8.6      0.000      0.000
REMARK  Name = ZINC000064971506 ZINC64971506 ChemDiv-G741-1139 MCULE-4305964791 MolPort-010-846-948 PubChem-53091021
REMARK  5 active torsions:
REMARK  status: ('A' for Active; 'I' for Inactive)
REMARK    1  A    between atoms: N_1  and  C_20
REMARK    2  A    between atoms: N_8  and  C_23
REMARK    3  A    between atoms: C_23  and  C_24
REMARK    4  A    between atoms: N_26  and  C_28
REMARK    5  A    between atoms: C_28  and  C_29
REMARK                            x       y       z     vdW  Elec       q    Type
REMARK                         _______ _______ _______ _____ _____    ______ ____
ROOT
ATOM      1  N   UNL     1     -47.457  -4.385 -27.506  0.00  0.00    +0.000 N 
ATOM      2  C   UNL     1     -46.708  -5.527 -27.947  0.00  0.00    +0.000 C 
ATOM      3  O   UNL     1     -45.925  -6.115 -27.153  0.00  0.00    +0.000 OA
ATOM      4  N   UNL     1     -46.832  -5.975 -29.314  0.00  0.00    +0.000 N 
ATOM      5  C   UNL     1     -47.650  -5.162 -30.219  0.00  0.00    +0.000 C 
ATOM      6  C   UNL     1     -47.130  -5.211 -31.620  0.00  0.00    +0.000 C 
ATOM      7  O   UNL     1     -47.314  -4.225 -32.380  0.00  0.00    +0.000 OA
ATOM      8  N   UNL     1     -46.494  -6.400 -32.108  0.00  0.00    +0.000 N 
ATOM      9  C   UNL     1     -46.119  -7.436 -31.176  0.00  0.00    +0.000 A 
ATOM     10  C   UNL     1     -46.284  -7.229 -29.789  0.00  0.00    +0.000 A 
ATOM     11  C   UNL     1     -45.927  -8.254 -28.898  0.00  0.00    +0.000 A 
ATOM     12  C   UNL     1     -45.402  -9.459 -29.366  0.00  0.00    +0.000 A 
ATOM     13  C   UNL     1     -45.227  -9.656 -30.735  0.00  0.00    +0.000 A 
ATOM     14  C   UNL     1     -45.583  -8.651 -31.635  0.00  0.00    +0.000 A 
ATOM     15  H   UNL     1     -48.087  -3.996 -28.154  0.00  0.00    +0.000 HD
ENDROOT
BRANCH   1  20
ATOM     16  C   UNL     1     -47.157  -1.726 -22.442  0.00  0.00    +0.000 C 
ATOM     17  C   UNL     1     -47.236  -2.427 -23.752  0.00  0.00    +0.000 A 
ATOM     18  C   UNL     1     -47.290  -1.687 -24.936  0.00  0.00    +0.000 A 
ATOM     19  C   UNL     1     -47.365  -2.347 -26.167  0.00  0.00    +0.000 A 
ATOM     20  C   UNL     1     -47.386  -3.746 -26.222  0.00  0.00    +0.000 A 
ATOM     21  C   UNL     1     -47.325  -4.481 -25.030  0.00  0.00    +0.000 A 
ATOM     22  C   UNL     1     -47.250  -3.824 -23.798  0.00  0.00    +0.000 A 
ENDBRANCH   1  20
BRANCH   8  23
ATOM     23  C   UNL     1     -46.321  -6.572 -33.551  0.00  0.00    +0.000 C 
BRANCH  23  24
ATOM     24  C   UNL     1     -44.938  -6.183 -33.964  0.00  0.00    +0.000 C 
ATOM     25  O   UNL     1     -44.284  -6.942 -34.729  0.00  0.00    +0.000 OA
ATOM     26  N   UNL     1     -44.365  -4.960 -33.492  0.00  0.00    +0.000 N 
ATOM     27  H   UNL     1     -44.793  -4.501 -32.733  0.00  0.00    +0.000 HD
BRANCH  26  28
ATOM     28  C   UNL     1     -43.174  -4.364 -34.084  0.00  0.00    +0.000 C 
BRANCH  28  29
ATOM     29  C   UNL     1     -42.988  -2.962 -33.576  0.00  0.00    +0.000 A 
ATOM     30  C   UNL     1     -41.741  -2.498 -33.102  0.00  0.00    +0.000 A 
ATOM     31  C   UNL     1     -40.523  -3.365 -33.113  0.00  0.00    +0.000 C 
ATOM     32  C   UNL     1     -41.633  -1.192 -32.599  0.00  0.00    +0.000 A 
ATOM     33  C   UNL     1     -42.753  -0.352 -32.561  0.00  0.00    +0.000 A 
ATOM     34  C   UNL     1     -43.988  -0.812 -33.027  0.00  0.00    +0.000 A 
ATOM     35  C   UNL     1     -44.104  -2.112 -33.535  0.00  0.00    +0.000 A 
ENDBRANCH  28  29
ENDBRANCH  26  28
ENDBRANCH  23  24
ENDBRANCH   8  23
TORSDOF 5
ENDMDL
MODEL 2
REMARK VINA RESULT:      -8.0      5.190      9.560
REMARK  Name = ZINC000064971506 ZINC64971506 ChemDiv-G741-1139 MCULE-4305964791 MolPort-010-846-948 PubChem-53091021
REMARK  5 active torsions:
REMARK  status: ('A' for Active; 'I' for Inactive)
REMARK    1  A    between atoms: N_1  and  C_20
REMARK    2  A    between atoms: N_8  and  C_23
REMARK    3  A    between atoms: C_23  and  C_24
REMARK    4  A    between atoms: N_26  and  C_28
REMARK    5  A    between atoms: C_28  and  C_29
REMARK                            x       y       z     vdW  Elec       q    Type
REMARK                         _______ _______ _______ _____ _____    ______ ____
ROOT
ATOM      1  N   UNL     1     -46.516  -6.907 -26.591  0.00  0.00    +0.000 N 
ATOM      2  C   UNL     1     -46.487  -7.353 -27.954  0.00  0.00    +0.000 C 
ATOM      3  O   UNL     1     -46.664  -6.531 -28.893  0.00  0.00    +0.000 OA
ATOM      4  N   UNL     1     -46.288  -8.755 -28.240  0.00  0.00    +0.000 N 
ATOM      5  C   UNL     1     -46.231  -9.674 -27.100  0.00  0.00    +0.000 C 
ATOM      6  C   UNL     1     -46.786 -11.018 -27.451  0.00  0.00    +0.000 C 
ATOM      7  O   UNL     1     -47.318 -11.719 -26.552  0.00  0.00    +0.000 OA
ATOM      8  N   UNL     1     -46.644 -11.526 -28.785  0.00  0.00    +0.000 N 
ATOM      9  C   UNL     1     -46.213 -10.639 -29.839  0.00  0.00    +0.000 A 
ATOM     10  C   UNL     1     -46.037  -9.262 -29.573  0.00  0.00    +0.000 A 
ATOM     11  C   UNL     1     -45.603  -8.417 -30.607  0.00  0.00    +0.000 A 
ATOM     12  C   UNL     1     -45.362  -8.918 -31.887  0.00  0.00    +0.000 A 
ATOM     13  C   UNL     1     -45.551 -10.273 -32.151  0.00  0.00    +0.000 A 
ATOM     14  C   UNL     1     -45.974 -11.129 -31.133  0.00  0.00    +0.000 A 
ATOM     15  H   UNL     1     -46.325  -7.584 -25.903  0.00  0.00    +0.000 HD
ENDROOT
BRANCH   1  20
ATOM     16  C   UNL     1     -47.645  -1.658 -24.596  0.00  0.00    +0.000 C 
ATOM     17  C   UNL     1     -47.351  -3.017 -25.124  0.00  0.00    +0.000 A 
ATOM     18  C   UNL     1     -47.163  -4.083 -24.242  0.00  0.00    +0.000 A 
ATOM     19  C   UNL     1     -46.886  -5.361 -24.739  0.00  0.00    +0.000 A 
ATOM     20  C   UNL     1     -46.796  -5.579 -26.120  0.00  0.00    +0.000 A 
ATOM     21  C   UNL     1     -46.992  -4.506 -27.000  0.00  0.00    +0.000 A 
ATOM     22  C   UNL     1     -47.269  -3.228 -26.504  0.00  0.00    +0.000 A 
ENDBRANCH   1  20
BRANCH   8  23
ATOM     23  C   UNL     1     -46.856 -12.954 -29.028  0.00  0.00    +0.000 C 
BRANCH  23  24
ATOM     24  C   UNL     1     -45.693 -13.749 -28.529  0.00  0.00    +0.000 C 
ATOM     25  O   UNL     1     -44.675 -13.881 -29.260  0.00  0.00    +0.000 OA
ATOM     26  N   UNL     1     -45.740 -14.353 -27.232  0.00  0.00    +0.000 N 
ATOM     27  H   UNL     1     -46.611 -14.427 -26.778  0.00  0.00    +0.000 HD
BRANCH  26  28
ATOM     28  C   UNL     1     -44.556 -14.865 -26.555  0.00  0.00    +0.000 C 
BRANCH  28  29
ATOM     29  C   UNL     1     -44.797 -16.270 -26.078  0.00  0.00    +0.000 A 
ATOM     30  C   UNL     1     -45.631 -16.552 -24.974  0.00  0.00    +0.000 A 
ATOM     31  C   UNL     1     -46.355 -15.470 -24.238  0.00  0.00    +0.000 C 
ATOM     32  C   UNL     1     -45.789 -17.878 -24.545  0.00  0.00    +0.000 A 
ATOM     33  C   UNL     1     -45.121 -18.921 -25.201  0.00  0.00    +0.000 A 
ATOM     34  C   UNL     1     -44.291 -18.641 -26.291  0.00  0.00    +0.000 A 
ATOM     35  C   UNL     1     -44.133 -17.321 -26.730  0.00  0.00    +0.000 A 
ENDBRANCH  28  29
ENDBRANCH  26  28
ENDBRANCH  23  24
ENDBRANCH   8  23
TORSDOF 5
ENDMDL
MODEL 3
REMARK VINA RESULT:      -7.5      2.614      4.198
REMARK  Name = ZINC000064971506 ZINC64971506 ChemDiv-G741-1139 MCULE-4305964791 MolPort-010-846-948 PubChem-53091021
REMARK  5 active torsions:
REMARK  status: ('A' for Active; 'I' for Inactive)
REMARK    1  A    between atoms: N_1  and  C_20
REMARK    2  A    between atoms: N_8  and  C_23
REMARK    3  A    between atoms: C_23  and  C_24
REMARK    4  A    between atoms: N_26  and  C_28
REMARK    5  A    between atoms: C_28  and  C_29
REMARK                            x       y       z     vdW  Elec       q    Type
REMARK                         _______ _______ _______ _____ _____    ______ ____
ROOT
ATOM      1  N   UNL     1     -47.561  -4.086 -27.880  0.00  0.00    +0.000 N 
ATOM      2  C   UNL     1     -47.162  -5.344 -28.443  0.00  0.00    +0.000 C 
ATOM      3  O   UNL     1     -46.697  -6.251 -27.701  0.00  0.00    +0.000 OA
ATOM      4  N   UNL     1     -47.266  -5.551 -29.869  0.00  0.00    +0.000 N 
ATOM      5  C   UNL     1     -47.680  -4.408 -30.688  0.00  0.00    +0.000 C 
ATOM      6  C   UNL     1     -47.047  -4.446 -32.042  0.00  0.00    +0.000 C 
ATOM      7  O   UNL     1     -46.826  -3.367 -32.649  0.00  0.00    +0.000 OA
ATOM      8  N   UNL     1     -46.764  -5.706 -32.667  0.00  0.00    +0.000 N 
ATOM      9  C   UNL     1     -46.840  -6.917 -31.885  0.00  0.00    +0.000 A 
ATOM     10  C   UNL     1     -47.086  -6.844 -30.496  0.00  0.00    +0.000 A 
ATOM     11  C   UNL     1     -47.171  -8.034 -29.754  0.00  0.00    +0.000 A 
ATOM     12  C   UNL     1     -46.999  -9.274 -30.369  0.00  0.00    +0.000 A 
ATOM     13  C   UNL     1     -46.742  -9.343 -31.737  0.00  0.00    +0.000 A 
ATOM     14  C   UNL     1     -46.662  -8.171 -32.491  0.00  0.00    +0.000 A 
ATOM     15  H   UNL     1     -47.961  -3.435 -28.500  0.00  0.00    +0.000 HD
ENDROOT
BRANCH   1  20
ATOM     16  C   UNL     1     -47.060  -2.319 -22.456  0.00  0.00    +0.000 C 
ATOM     17  C   UNL     1     -47.191  -2.789 -23.861  0.00  0.00    +0.000 A 
ATOM     18  C   UNL     1     -47.279  -1.861 -24.901  0.00  0.00    +0.000 A 
ATOM     19  C   UNL     1     -47.403  -2.303 -26.222  0.00  0.00    +0.000 A 
ATOM     20  C   UNL     1     -47.440  -3.673 -26.510  0.00  0.00    +0.000 A 
ATOM     21  C   UNL     1     -47.344  -4.599 -25.462  0.00  0.00    +0.000 A 
ATOM     22  C   UNL     1     -47.220  -4.158 -24.140  0.00  0.00    +0.000 A 
ENDBRANCH   1  20
BRANCH   8  23
ATOM     23  C   UNL     1     -46.492  -5.741 -34.104  0.00  0.00    +0.000 C 
BRANCH  23  24
ATOM     24  C   UNL     1     -45.083  -6.170 -34.361  0.00  0.00    +0.000 C 
ATOM     25  O   UNL     1     -44.135  -5.522 -33.842  0.00  0.00    +0.000 OA
ATOM     26  N   UNL     1     -44.819  -7.305 -35.191  0.00  0.00    +0.000 N 
ATOM     27  H   UNL     1     -45.545  -7.654 -35.758  0.00  0.00    +0.000 HD
BRANCH  26  28
ATOM     28  C   UNL     1     -43.522  -7.967 -35.235  0.00  0.00    +0.000 C 
BRANCH  28  29
ATOM     29  C   UNL     1     -43.460  -9.056 -34.201  0.00  0.00    +0.000 A 
ATOM     30  C   UNL     1     -43.950 -10.357 -34.453  0.00  0.00    +0.000 A 
ATOM     31  C   UNL     1     -44.525 -10.736 -35.781  0.00  0.00    +0.000 C 
ATOM     32  C   UNL     1     -43.905 -11.324 -33.439  0.00  0.00    +0.000 A 
ATOM     33  C   UNL     1     -43.384 -11.006 -32.178  0.00  0.00    +0.000 A 
ATOM     34  C   UNL     1     -42.902  -9.717 -31.926  0.00  0.00    +0.000 A 
ATOM     35  C   UNL     1     -42.938  -8.748 -32.935  0.00  0.00    +0.000 A 
ENDBRANCH  28  29
ENDBRANCH  26  28
ENDBRANCH  23  24
ENDBRANCH   8  23
TORSDOF 5
ENDMDL
